*SPEF "IEEE 1481-1998"
*DESIGN "P4_ADDER_NBIT32"
*DATE "Mon May 31 11:16:30 2021"
*VENDOR "Cadence Design Systems, Inc."
*PROGRAM "Innovus"
*VERSION "17.11-s080_1"
*DESIGN_FLOW "COUPLING C" "PIN_CAP NONE" "NAME_SCOPE LOCAL"
*DIVIDER /
*DELIMITER :
*BUS_DELIMITER []
*T_UNIT 1 NS
*C_UNIT 1 PF
*R_UNIT 1 OHM
*L_UNIT 1 HENRY

// MMMC spef file for corner 'standard'

*NAME_MAP

*1 A[31]
*2 A[30]
*3 A[29]
*4 A[28]
*5 A[27]
*6 A[26]
*7 A[25]
*8 A[24]
*9 A[23]
*10 A[22]
*11 A[21]
*12 A[20]
*13 A[19]
*14 A[18]
*15 A[17]
*16 A[16]
*17 A[15]
*18 A[14]
*19 A[13]
*20 A[12]
*21 A[11]
*22 A[10]
*23 A[9]
*24 A[8]
*25 A[7]
*26 A[6]
*27 A[5]
*28 A[4]
*29 A[3]
*30 A[2]
*31 A[1]
*32 A[0]
*33 B[31]
*34 B[30]
*35 B[29]
*36 B[28]
*37 B[27]
*38 B[26]
*39 B[25]
*40 B[24]
*41 B[23]
*42 B[22]
*43 B[21]
*44 B[20]
*45 B[19]
*46 B[18]
*47 B[17]
*48 B[16]
*49 B[15]
*50 B[14]
*51 B[13]
*52 B[12]
*53 B[11]
*54 B[10]
*55 B[9]
*56 B[8]
*57 B[7]
*58 B[6]
*59 B[5]
*60 B[4]
*61 B[3]
*62 B[2]
*63 B[1]
*64 B[0]
*65 Cin
*66 Cout
*67 carry_sum[7]
*68 carry_sum[6]
*69 carry_sum[5]
*70 carry_sum[4]
*71 carry_sum[3]
*72 carry_sum[2]
*73 carry_sum[1]
*74 CARRYGEN/sigmtx\[0\]\[0\]\[32\]
*75 CARRYGEN/sigmtx\[0\]\[0\]\[31\]
*76 CARRYGEN/sigmtx\[0\]\[0\]\[30\]
*77 CARRYGEN/sigmtx\[0\]\[0\]\[29\]
*78 CARRYGEN/sigmtx\[0\]\[0\]\[28\]
*79 CARRYGEN/sigmtx\[0\]\[0\]\[27\]
*80 CARRYGEN/sigmtx\[0\]\[0\]\[26\]
*81 CARRYGEN/sigmtx\[0\]\[0\]\[25\]
*82 CARRYGEN/sigmtx\[0\]\[0\]\[24\]
*83 CARRYGEN/sigmtx\[0\]\[0\]\[23\]
*84 CARRYGEN/sigmtx\[0\]\[0\]\[22\]
*85 CARRYGEN/sigmtx\[0\]\[0\]\[21\]
*86 CARRYGEN/sigmtx\[0\]\[0\]\[20\]
*87 CARRYGEN/sigmtx\[0\]\[0\]\[19\]
*88 CARRYGEN/sigmtx\[0\]\[0\]\[18\]
*89 CARRYGEN/sigmtx\[0\]\[0\]\[17\]
*90 CARRYGEN/sigmtx\[0\]\[0\]\[16\]
*91 CARRYGEN/sigmtx\[0\]\[0\]\[15\]
*92 CARRYGEN/sigmtx\[0\]\[0\]\[14\]
*93 CARRYGEN/sigmtx\[0\]\[0\]\[13\]
*94 CARRYGEN/sigmtx\[0\]\[0\]\[12\]
*95 CARRYGEN/sigmtx\[0\]\[0\]\[11\]
*96 CARRYGEN/sigmtx\[0\]\[0\]\[10\]
*97 CARRYGEN/sigmtx\[0\]\[0\]\[9\]
*98 CARRYGEN/sigmtx\[0\]\[0\]\[8\]
*99 CARRYGEN/sigmtx\[0\]\[0\]\[7\]
*100 CARRYGEN/sigmtx\[0\]\[0\]\[6\]
*101 CARRYGEN/sigmtx\[0\]\[0\]\[5\]
*102 CARRYGEN/sigmtx\[0\]\[0\]\[4\]
*103 CARRYGEN/sigmtx\[0\]\[0\]\[3\]
*104 CARRYGEN/sigmtx\[0\]\[0\]\[2\]
*105 CARRYGEN/sigmtx\[0\]\[0\]\[1\]
*106 CARRYGEN/sigmtx\[0\]\[1\]\[32\]
*107 CARRYGEN/sigmtx\[0\]\[1\]\[30\]
*108 CARRYGEN/sigmtx\[0\]\[1\]\[28\]
*109 CARRYGEN/sigmtx\[0\]\[1\]\[26\]
*110 CARRYGEN/sigmtx\[0\]\[1\]\[24\]
*111 CARRYGEN/sigmtx\[0\]\[1\]\[22\]
*112 CARRYGEN/sigmtx\[0\]\[1\]\[20\]
*113 CARRYGEN/sigmtx\[0\]\[1\]\[18\]
*114 CARRYGEN/sigmtx\[0\]\[1\]\[16\]
*115 CARRYGEN/sigmtx\[0\]\[1\]\[14\]
*116 CARRYGEN/sigmtx\[0\]\[1\]\[12\]
*117 CARRYGEN/sigmtx\[0\]\[1\]\[10\]
*118 CARRYGEN/sigmtx\[0\]\[1\]\[8\]
*119 CARRYGEN/sigmtx\[0\]\[1\]\[6\]
*120 CARRYGEN/sigmtx\[0\]\[1\]\[4\]
*121 CARRYGEN/sigmtx\[0\]\[1\]\[2\]
*122 CARRYGEN/sigmtx\[0\]\[2\]\[32\]
*123 CARRYGEN/sigmtx\[0\]\[2\]\[28\]
*124 CARRYGEN/sigmtx\[0\]\[2\]\[24\]
*125 CARRYGEN/sigmtx\[0\]\[2\]\[20\]
*126 CARRYGEN/sigmtx\[0\]\[2\]\[16\]
*127 CARRYGEN/sigmtx\[0\]\[2\]\[12\]
*128 CARRYGEN/sigmtx\[0\]\[2\]\[8\]
*129 CARRYGEN/sigmtx\[0\]\[3\]\[32\]
*130 CARRYGEN/sigmtx\[0\]\[3\]\[24\]
*131 CARRYGEN/sigmtx\[0\]\[3\]\[16\]
*132 CARRYGEN/sigmtx\[0\]\[4\]\[32\]
*133 CARRYGEN/sigmtx\[0\]\[4\]\[28\]
*134 CARRYGEN/sigmtx\[1\]\[0\]\[32\]
*135 CARRYGEN/sigmtx\[1\]\[0\]\[31\]
*136 CARRYGEN/sigmtx\[1\]\[0\]\[30\]
*137 CARRYGEN/sigmtx\[1\]\[0\]\[29\]
*138 CARRYGEN/sigmtx\[1\]\[0\]\[28\]
*139 CARRYGEN/sigmtx\[1\]\[0\]\[27\]
*140 CARRYGEN/sigmtx\[1\]\[0\]\[26\]
*141 CARRYGEN/sigmtx\[1\]\[0\]\[25\]
*142 CARRYGEN/sigmtx\[1\]\[0\]\[24\]
*143 CARRYGEN/sigmtx\[1\]\[0\]\[23\]
*144 CARRYGEN/sigmtx\[1\]\[0\]\[22\]
*145 CARRYGEN/sigmtx\[1\]\[0\]\[21\]
*146 CARRYGEN/sigmtx\[1\]\[0\]\[20\]
*147 CARRYGEN/sigmtx\[1\]\[0\]\[19\]
*148 CARRYGEN/sigmtx\[1\]\[0\]\[18\]
*149 CARRYGEN/sigmtx\[1\]\[0\]\[17\]
*150 CARRYGEN/sigmtx\[1\]\[0\]\[16\]
*151 CARRYGEN/sigmtx\[1\]\[0\]\[15\]
*152 CARRYGEN/sigmtx\[1\]\[0\]\[14\]
*153 CARRYGEN/sigmtx\[1\]\[0\]\[13\]
*154 CARRYGEN/sigmtx\[1\]\[0\]\[12\]
*155 CARRYGEN/sigmtx\[1\]\[0\]\[11\]
*156 CARRYGEN/sigmtx\[1\]\[0\]\[10\]
*157 CARRYGEN/sigmtx\[1\]\[0\]\[9\]
*158 CARRYGEN/sigmtx\[1\]\[0\]\[8\]
*159 CARRYGEN/sigmtx\[1\]\[0\]\[7\]
*160 CARRYGEN/sigmtx\[1\]\[0\]\[6\]
*161 CARRYGEN/sigmtx\[1\]\[0\]\[5\]
*162 CARRYGEN/sigmtx\[1\]\[0\]\[4\]
*163 CARRYGEN/sigmtx\[1\]\[0\]\[3\]
*164 CARRYGEN/sigmtx\[1\]\[0\]\[2\]
*165 CARRYGEN/sigmtx\[1\]\[1\]\[32\]
*166 CARRYGEN/sigmtx\[1\]\[1\]\[30\]
*167 CARRYGEN/sigmtx\[1\]\[1\]\[28\]
*168 CARRYGEN/sigmtx\[1\]\[1\]\[26\]
*169 CARRYGEN/sigmtx\[1\]\[1\]\[24\]
*170 CARRYGEN/sigmtx\[1\]\[1\]\[22\]
*171 CARRYGEN/sigmtx\[1\]\[1\]\[20\]
*172 CARRYGEN/sigmtx\[1\]\[1\]\[18\]
*173 CARRYGEN/sigmtx\[1\]\[1\]\[16\]
*174 CARRYGEN/sigmtx\[1\]\[1\]\[14\]
*175 CARRYGEN/sigmtx\[1\]\[1\]\[12\]
*176 CARRYGEN/sigmtx\[1\]\[1\]\[10\]
*177 CARRYGEN/sigmtx\[1\]\[1\]\[8\]
*178 CARRYGEN/sigmtx\[1\]\[1\]\[6\]
*179 CARRYGEN/sigmtx\[1\]\[1\]\[4\]
*180 CARRYGEN/sigmtx\[1\]\[2\]\[32\]
*181 CARRYGEN/sigmtx\[1\]\[2\]\[28\]
*182 CARRYGEN/sigmtx\[1\]\[2\]\[24\]
*183 CARRYGEN/sigmtx\[1\]\[2\]\[20\]
*184 CARRYGEN/sigmtx\[1\]\[2\]\[16\]
*185 CARRYGEN/sigmtx\[1\]\[2\]\[12\]
*186 CARRYGEN/sigmtx\[1\]\[2\]\[8\]
*187 CARRYGEN/sigmtx\[1\]\[3\]\[32\]
*188 CARRYGEN/sigmtx\[1\]\[3\]\[24\]
*189 CARRYGEN/sigmtx\[1\]\[3\]\[16\]
*190 CARRYGEN/sigmtx\[1\]\[4\]\[32\]
*191 CARRYGEN/sigmtx\[1\]\[4\]\[28\]
*192 CARRYGEN/SYNOPSYS_UNCONNECTED__0
*193 CARRYGEN/GGi_1_2/n2
*194 CARRYGEN/PGi_1_4/n2
*195 CARRYGEN/PGi_1_6/n1
*196 CARRYGEN/PGi_1_8/n1
*197 CARRYGEN/PGi_1_10/n1
*198 CARRYGEN/PGi_1_12/n1
*199 CARRYGEN/PGi_1_14/n1
*200 CARRYGEN/PGi_1_16/n1
*201 CARRYGEN/PGi_1_18/n1
*202 CARRYGEN/PGi_1_20/n1
*203 CARRYGEN/PGi_1_22/n1
*204 CARRYGEN/PGi_1_24/n1
*205 CARRYGEN/PGi_1_26/n1
*206 CARRYGEN/PGi_1_28/n1
*207 CARRYGEN/PGi_1_30/n1
*208 CARRYGEN/PGi_1_32/n1
*209 CARRYGEN/GGi_2_4/n1
*210 CARRYGEN/PGi_2_8/n1
*211 CARRYGEN/PGi_2_12/n1
*212 CARRYGEN/PGi_2_16/n1
*213 CARRYGEN/PGi_2_20/n1
*214 CARRYGEN/PGi_2_24/n1
*215 CARRYGEN/PGi_2_28/n1
*216 CARRYGEN/PGi_2_32/n1
*217 CARRYGEN/GGi_3_8/n1
*218 CARRYGEN/PGi_3_16/n1
*219 CARRYGEN/PGi_3_24/n1
*220 CARRYGEN/PGi_3_32/n1
*221 CARRYGEN/GGi_4_12/n1
*222 CARRYGEN/GGi_4_16/n1
*223 CARRYGEN/PGi_4_28/n1
*224 CARRYGEN/PGi_4_32/n1
*225 CARRYGEN/GGi_5_20/n1
*226 CARRYGEN/GGi_5_24/n1
*227 CARRYGEN/GGi_5_28/n1
*228 CARRYGEN/GGi_5_32/n1
*229 S[31]
*230 S[30]
*231 S[29]
*232 S[28]
*233 S[27]
*234 S[26]
*235 S[25]
*236 S[24]
*237 S[23]
*238 S[22]
*239 S[21]
*240 S[20]
*241 S[19]
*242 S[18]
*243 S[17]
*244 S[16]
*245 S[15]
*246 S[14]
*247 S[13]
*248 S[12]
*249 S[11]
*250 S[10]
*251 S[9]
*252 S[8]
*253 S[7]
*254 S[6]
*255 S[5]
*256 S[4]
*257 S[3]
*258 S[2]
*259 S[1]
*260 S[0]
*261 CARRYGEN/PGNet/pg_network_i_0/U2
*262 CARRYGEN/PGNet/pg_network_i_0/U1
*263 CARRYGEN/PGNet/pg_network_i_1/U2
*264 CARRYGEN/PGNet/pg_network_i_1/U1
*265 CARRYGEN/PGNet/pg_network_i_2/U2
*266 CARRYGEN/PGNet/pg_network_i_2/U1
*267 CARRYGEN/PGNet/pg_network_i_3/U2
*268 CARRYGEN/PGNet/pg_network_i_3/U1
*269 CARRYGEN/PGNet/pg_network_i_4/U2
*270 CARRYGEN/PGNet/pg_network_i_4/U1
*271 CARRYGEN/PGNet/pg_network_i_5/U2
*272 CARRYGEN/PGNet/pg_network_i_5/U1
*273 CARRYGEN/PGNet/pg_network_i_6/U2
*274 CARRYGEN/PGNet/pg_network_i_6/U1
*275 CARRYGEN/PGNet/pg_network_i_7/U2
*276 CARRYGEN/PGNet/pg_network_i_7/U1
*277 CARRYGEN/PGNet/pg_network_i_8/U2
*278 CARRYGEN/PGNet/pg_network_i_8/U1
*279 CARRYGEN/PGNet/pg_network_i_9/U2
*280 CARRYGEN/PGNet/pg_network_i_9/U1
*281 CARRYGEN/PGNet/pg_network_i_10/U2
*282 CARRYGEN/PGNet/pg_network_i_10/U1
*283 CARRYGEN/PGNet/pg_network_i_11/U2
*284 CARRYGEN/PGNet/pg_network_i_11/U1
*285 CARRYGEN/PGNet/pg_network_i_12/U2
*286 CARRYGEN/PGNet/pg_network_i_12/U1
*287 CARRYGEN/PGNet/pg_network_i_13/U2
*288 CARRYGEN/PGNet/pg_network_i_13/U1
*289 CARRYGEN/PGNet/pg_network_i_14/U2
*290 CARRYGEN/PGNet/pg_network_i_14/U1
*291 CARRYGEN/PGNet/pg_network_i_15/U2
*292 CARRYGEN/PGNet/pg_network_i_15/U1
*293 CARRYGEN/PGNet/pg_network_i_16/U2
*294 CARRYGEN/PGNet/pg_network_i_16/U1
*295 CARRYGEN/PGNet/pg_network_i_17/U2
*296 CARRYGEN/PGNet/pg_network_i_17/U1
*297 CARRYGEN/PGNet/pg_network_i_18/U2
*298 CARRYGEN/PGNet/pg_network_i_18/U1
*299 CARRYGEN/PGNet/pg_network_i_19/U2
*300 CARRYGEN/PGNet/pg_network_i_19/U1
*301 CARRYGEN/PGNet/pg_network_i_20/U2
*302 CARRYGEN/PGNet/pg_network_i_20/U1
*303 CARRYGEN/PGNet/pg_network_i_21/U2
*304 CARRYGEN/PGNet/pg_network_i_21/U1
*305 CARRYGEN/PGNet/pg_network_i_22/U2
*306 CARRYGEN/PGNet/pg_network_i_22/U1
*307 CARRYGEN/PGNet/pg_network_i_23/U2
*308 CARRYGEN/PGNet/pg_network_i_23/U1
*309 CARRYGEN/PGNet/pg_network_i_24/U2
*310 CARRYGEN/PGNet/pg_network_i_24/U1
*311 CARRYGEN/PGNet/pg_network_i_25/U2
*312 CARRYGEN/PGNet/pg_network_i_25/U1
*313 CARRYGEN/PGNet/pg_network_i_26/U2
*314 CARRYGEN/PGNet/pg_network_i_26/U1
*315 CARRYGEN/PGNet/pg_network_i_27/U2
*316 CARRYGEN/PGNet/pg_network_i_27/U1
*317 CARRYGEN/PGNet/pg_network_i_28/U2
*318 CARRYGEN/PGNet/pg_network_i_28/U1
*319 CARRYGEN/PGNet/pg_network_i_29/U2
*320 CARRYGEN/PGNet/pg_network_i_29/U1
*321 CARRYGEN/PGNet/pg_network_i_30/U2
*322 CARRYGEN/PGNet/pg_network_i_30/U1
*323 CARRYGEN/PGNet/pg_network_i_31/U2
*324 CARRYGEN/PGNet/pg_network_i_31/U1
*325 CARRYGEN/GGi_1_2/U1
*326 CARRYGEN/GGi_1_2/U2
*327 CARRYGEN/PGi_1_4/U1
*328 CARRYGEN/PGi_1_4/U2
*329 CARRYGEN/PGi_1_4/U3
*330 CARRYGEN/PGi_1_6/U1
*331 CARRYGEN/PGi_1_6/U2
*332 CARRYGEN/PGi_1_6/U3
*333 CARRYGEN/PGi_1_8/U1
*334 CARRYGEN/PGi_1_8/U2
*335 CARRYGEN/PGi_1_8/U3
*336 CARRYGEN/PGi_1_10/U1
*337 CARRYGEN/PGi_1_10/U2
*338 CARRYGEN/PGi_1_10/U3
*339 CARRYGEN/PGi_1_12/U1
*340 CARRYGEN/PGi_1_12/U2
*341 CARRYGEN/PGi_1_12/U3
*342 CARRYGEN/PGi_1_14/U1
*343 CARRYGEN/PGi_1_14/U2
*344 CARRYGEN/PGi_1_14/U3
*345 CARRYGEN/PGi_1_16/U1
*346 CARRYGEN/PGi_1_16/U2
*347 CARRYGEN/PGi_1_16/U3
*348 CARRYGEN/PGi_1_18/U1
*349 CARRYGEN/PGi_1_18/U2
*350 CARRYGEN/PGi_1_18/U3
*351 CARRYGEN/PGi_1_20/U1
*352 CARRYGEN/PGi_1_20/U2
*353 CARRYGEN/PGi_1_20/U3
*354 CARRYGEN/PGi_1_22/U1
*355 CARRYGEN/PGi_1_22/U2
*356 CARRYGEN/PGi_1_22/U3
*357 CARRYGEN/PGi_1_24/U1
*358 CARRYGEN/PGi_1_24/U2
*359 CARRYGEN/PGi_1_24/U3
*360 CARRYGEN/PGi_1_26/U1
*361 CARRYGEN/PGi_1_26/U2
*362 CARRYGEN/PGi_1_26/U3
*363 CARRYGEN/PGi_1_28/U1
*364 CARRYGEN/PGi_1_28/U2
*365 CARRYGEN/PGi_1_28/U3
*366 CARRYGEN/PGi_1_30/U1
*367 CARRYGEN/PGi_1_30/U2
*368 CARRYGEN/PGi_1_30/U3
*369 CARRYGEN/PGi_1_32/U1
*370 CARRYGEN/PGi_1_32/U2
*371 CARRYGEN/PGi_1_32/U3
*372 CARRYGEN/GGi_2_4/U1
*373 CARRYGEN/GGi_2_4/U2
*374 CARRYGEN/PGi_2_8/U1
*375 CARRYGEN/PGi_2_8/U2
*376 CARRYGEN/PGi_2_8/U3
*377 CARRYGEN/PGi_2_12/U1
*378 CARRYGEN/PGi_2_12/U2
*379 CARRYGEN/PGi_2_12/U3
*380 CARRYGEN/PGi_2_16/U1
*381 CARRYGEN/PGi_2_16/U2
*382 CARRYGEN/PGi_2_16/U3
*383 CARRYGEN/PGi_2_20/U1
*384 CARRYGEN/PGi_2_20/U2
*385 CARRYGEN/PGi_2_20/U3
*386 CARRYGEN/PGi_2_24/U1
*387 CARRYGEN/PGi_2_24/U2
*388 CARRYGEN/PGi_2_24/U3
*389 CARRYGEN/PGi_2_28/U1
*390 CARRYGEN/PGi_2_28/U2
*391 CARRYGEN/PGi_2_28/U3
*392 CARRYGEN/PGi_2_32/U1
*393 CARRYGEN/PGi_2_32/U2
*394 CARRYGEN/PGi_2_32/U3
*395 CARRYGEN/GGi_3_8/U1
*396 CARRYGEN/GGi_3_8/U2
*397 CARRYGEN/PGi_3_16/U1
*398 CARRYGEN/PGi_3_16/U2
*399 CARRYGEN/PGi_3_16/U3
*400 CARRYGEN/PGi_3_24/U1
*401 CARRYGEN/PGi_3_24/U2
*402 CARRYGEN/PGi_3_24/U3
*403 CARRYGEN/PGi_3_32/U1
*404 CARRYGEN/PGi_3_32/U2
*405 CARRYGEN/PGi_3_32/U3
*406 CARRYGEN/GGi_4_12/U1
*407 CARRYGEN/GGi_4_12/U2
*408 CARRYGEN/GGi_4_16/U1
*409 CARRYGEN/GGi_4_16/U2
*410 CARRYGEN/PGi_4_28/U1
*411 CARRYGEN/PGi_4_28/U2
*412 CARRYGEN/PGi_4_28/U3
*413 CARRYGEN/PGi_4_32/U1
*414 CARRYGEN/PGi_4_32/U2
*415 CARRYGEN/PGi_4_32/U3
*416 CARRYGEN/GGi_5_20/U1
*417 CARRYGEN/GGi_5_20/U2
*418 CARRYGEN/GGi_5_24/U1
*419 CARRYGEN/GGi_5_24/U2
*420 CARRYGEN/GGi_5_28/U1
*421 CARRYGEN/GGi_5_28/U2
*422 CARRYGEN/GGi_5_32/U1
*423 CARRYGEN/GGi_5_32/U2


*PORTS

*1 I *C 27.075 26.88
*2 I *C 26.315 26.88
*3 I *C 25.365 26.88
*4 I *C 24.605 26.88
*5 I *C 23.655 26.88
*6 I *C 22.705 26.88
*7 I *C 21.945 26.88
*8 I *C 20.995 26.88
*9 I *C 20.235 26.88
*10 I *C 19.285 26.88
*11 I *C 18.335 26.88
*12 I *C 17.575 26.88
*13 I *C 16.625 26.88
*14 I *C 15.865 26.88
*15 I *C 14.915 26.88
*16 I *C 13.965 26.88
*17 I *C 13.205 26.88
*18 I *C 12.255 26.88
*19 I *C 11.305 26.88
*20 I *C 10.545 26.88
*21 I *C 9.595 26.88
*22 I *C 8.835 26.88
*23 I *C 7.885 26.88
*24 I *C 6.935 26.88
*25 I *C 6.175 26.88
*26 I *C 5.225 26.88
*27 I *C 4.465 26.88
*28 I *C 3.515 26.88
*29 I *C 2.565 26.88
*30 I *C 1.805 26.88
*31 I *C 0.855 26.88
*32 I *C 0.095 26.88
*33 I *C 0 26.67
*34 I *C 0 25.83
*35 I *C 0 24.99
*36 I *C 0 24.15
*37 I *C 0 23.31
*38 I *C 0 22.47
*39 I *C 0 21.63
*40 I *C 0 20.65
*41 I *C 0 19.81
*42 I *C 0 18.97
*43 I *C 0 18.13
*44 I *C 0 17.29
*45 I *C 0 16.45
*46 I *C 0 15.47
*47 I *C 0 14.63
*48 I *C 0 13.79
*49 I *C 0 12.95
*50 I *C 0 12.11
*51 I *C 0 11.27
*52 I *C 0 10.29
*53 I *C 0 9.45
*54 I *C 0 8.61
*55 I *C 0 7.77
*56 I *C 0 6.93
*57 I *C 0 6.09
*58 I *C 0 5.11
*59 I *C 0 4.27
*60 I *C 0 3.43
*61 I *C 0 2.59
*62 I *C 0 1.75
*63 I *C 0 0.91
*64 I *C 0 0.07
*65 I *C 13.775 0
*229 O *C 27.36 0.21
*230 O *C 27.36 1.05
*231 O *C 27.36 1.89
*232 O *C 27.36 2.73
*233 O *C 27.36 3.57
*234 O *C 27.36 4.41
*235 O *C 27.36 5.25
*236 O *C 27.36 6.23
*237 O *C 27.36 7.07
*238 O *C 27.36 7.91
*239 O *C 27.36 8.75
*240 O *C 27.36 9.59
*241 O *C 27.36 10.43
*242 O *C 27.36 11.41
*243 O *C 27.36 12.25
*244 O *C 27.36 13.09
*245 O *C 27.36 13.93
*246 O *C 27.36 14.77
*247 O *C 27.36 15.61
*248 O *C 27.36 16.59
*249 O *C 27.36 17.43
*250 O *C 27.36 18.27
*251 O *C 27.36 19.11
*252 O *C 27.36 19.95
*253 O *C 27.36 20.79
*254 O *C 27.36 21.77
*255 O *C 27.36 22.61
*256 O *C 27.36 23.45
*257 O *C 27.36 24.29
*258 O *C 27.36 25.13
*259 O *C 27.36 25.97
*260 O *C 27.36 26.81
*66 O *C 13.965 0


*D_NET *1 0.00338289

*CONN
*P *1 I *C 27.075 26.88 *L 0
*I *324:A2 I *C 6.14 6.965 *L 0.000975 *D AND2_X1
*I *323:B I *C 5.815 5.565 *L 0.00241 *D XOR2_X1

*CAP
1 *1 1.004e-05
2 *324:A2 1.662e-05
3 *323:B 1.662e-05
4 *1:3 5.961e-05
5 *1:4 9.401e-05
6 *1:5 4.2e-05
7 *1:6 0.00012799
8 *1:7 0.00012799
9 *1:8 3.512e-05
10 *1:9 3.512e-05
11 *1:10 0.00058591
12 *1:11 0.00058591
13 *1:12 0.00066305
14 *1:13 3.088e-05
15 *1:14 2.915e-05
16 *1:15 0.00066305
17 *1:10 *55:8 0.00012793
18 *1:11 *55:9 0.00012793
19 *1:8 *55:3 1.98e-06
20 *1:9 *55:4 1.98e-06

*RES
1 *1:13 *1 0.95
2 *1:14 *1:13 3.09429
3 *1:6 *1:14 5
4 *1:7 *1:6 12.5
5 *1:15 *1:7 5
6 *1:12 *1:15 70
7 *1:10 *1:12 5
8 *1:11 *1:10 22.26
9 *1:8 *1:11 5
10 *1:9 *1:8 2.60714
11 *1:3 *1:9 5
12 *1:4 *324:A2 5
13 *1:4 *1:3 4.5
14 *1:5 *323:B 5
15 *1:5 *1:4 5.5
*END

*D_NET *2 0.0031237

*CONN
*P *2 I *C 26.315 26.88 *L 0
*I *322:A2 I *C 7.16 5.915 *L 0.000975 *D AND2_X1
*I *321:B I *C 7.715 5.565 *L 0.00241 *D XOR2_X1

*CAP
1 *2 1.004e-05
2 *322:A2 1.662e-05
3 *321:B 8.03e-06
4 *2:3 4.093e-05
5 *2:4 1.889e-05
6 *2:5 0.00062251
7 *2:6 4.726e-05
8 *2:7 4.954e-05
9 *2:8 4.712e-05
10 *2:9 1.59e-05
11 *2:10 1.562e-05
12 *2:11 0.00063544
13 *2:12 1.748e-05
14 *2:13 0.00062251
15 *2:14 1.721e-05
16 *2:15 1.548e-05
17 *2:16 2.297e-05
18 *2:17 2.525e-05
19 *2:18 0.00011973
20 *2:19 0.00011973
21 *2:20 0.00063544

*RES
1 *2:14 *2 0.95
2 *2:15 *2:14 1.03143
3 *2:16 *2:15 5
4 *2:17 *2:16 1.5
5 *2:18 *2:17 0.678571
6 *2:19 *2:18 12
7 *2:19 *2:20 0.678571
8 *2:11 *2:20 66
9 *2:12 *2:11 0.678571
10 *2:13 *2:12 5
11 *2:5 *2:13 64.4643
12 *2:6 *2:5 5
13 *2:10 *321:B 0.76
14 *2:6 *2:7 3.5
15 *2:9 *2:10 1.03143
16 *2:8 *2:7 0.678571
17 *2:8 *2:9 5
18 *2:4 *322:A2 5
19 *2:3 *2:8 2.03571
20 *2:3 *2:4 1.5
*END

*D_NET *3 0.00316671

*CONN
*P *3 I *C 25.365 26.88 *L 0
*I *320:A2 I *C 5.38 9.765 *L 0.000975 *D AND2_X1
*I *319:B I *C 6.195 10.115 *L 0.00241 *D XOR2_X1

*CAP
1 *3 3.412e-05
2 *320:A2 1.662e-05
3 *319:B 1.662e-05
4 *3:3 2.394e-05
5 *3:4 2.394e-05
6 *3:5 0.00045841
7 *3:6 0.00044625
8 *3:7 3.979e-05
9 *3:8 6.56e-05
10 *3:9 0.00015371
11 *3:10 0.00015371
12 *3:11 0.00016056
13 *3:12 0.00019491
14 *3:13 0.00011458
15 *3:14 0.0001073
16 *3:15 0.00011228
17 *3:16 0.0001232
18 *3:17 4.139e-05
19 *3:18 4.139e-05
20 *3:19 5.518e-05
21 *3:20 7.398e-05
22 *3:21 1.52e-05
23 *3:22 0.00016623
24 *3:23 0.00016227
25 *3:24 2.678e-05
26 *3:25 3.894e-05
27 *3:26 0.00011969
28 *3:27 0.00011969
29 *3:28 6.043e-05

*RES
1 *3:8 *3 3.23
2 *3:8 *3:7 7.22
3 *3:24 *3:7 5
4 *3:25 *3:24 1.5
5 *3:25 *3:26 1.35714
6 *3:27 *3:26 10.5
7 *3:5 *3:27 1.35714
8 *3:6 *3:5 46
9 *3:22 *3:6 5
10 *3:23 *3:22 16.2857
11 *3:23 *3:17 0.25
12 *3:18 *3:17 4.07143
13 *3:15 *3:18 0.25
14 *3:16 *3:15 6.10714
15 *3:9 *3:16 1
16 *3:10 *3:9 19
17 *3:10 *3:13 1
18 *3:14 *3:13 8.14286
19 *3:14 *3:11 0.5
20 *3:12 *3:11 13.5714
21 *3:4 *320:A2 5
22 *3:21 *319:B 5
23 *3:28 *3:12 3.39286
24 *3:4 *3:3 1
25 *3:20 *3:21 5
26 *3:20 *3:28 2.03571
27 *3:19 *3:3 5
28 *3:19 *3:20 3.39286
*END

*D_NET *4 0.00263161

*CONN
*P *4 I *C 24.605 26.88 *L 0
*I *318:A2 I *C 6.78 11.515 *L 0.000975 *D AND2_X1
*I *317:B I *C 7.335 10.115 *L 0.00241 *D XOR2_X1

*CAP
1 *4 1.004e-05
2 *318:A2 1.662e-05
3 *317:B 1.662e-05
4 *4:3 3.952e-05
5 *4:4 7.144e-05
6 *4:5 2.147e-05
7 *4:6 2.558e-05
8 *4:7 0.00015033
9 *4:8 0.00015033
10 *4:9 0.00018001
11 *4:10 0.00018033
12 *4:11 8.684e-05
13 *4:12 8.652e-05
14 *4:13 7.599e-05
15 *4:14 7.599e-05
16 *4:15 0.00010632
17 *4:16 0.00010632
18 *4:17 4.591e-05
19 *4:18 1.748e-05
20 *4:19 0.0005672
21 *4:20 1.748e-05
22 *4:21 1.835e-05
23 *4:22 0.00056492

*RES
1 *4:21 *4 0.95
2 *4:22 *4:21 5
3 *4:19 *4:22 57.5
4 *4:20 *4:19 0.678571
5 *4:11 *4:20 5
6 *4:12 *4:11 8.14286
7 *4:12 *4:15 0.5
8 *4:16 *4:15 8.82143
9 *4:7 *4:16 0.5
10 *4:8 *4:7 19.6786
11 *4:8 *4:13 0.5
12 *4:14 *4:13 6.78571
13 *4:9 *4:14 0.5
14 *4:3 *318:A2 5
15 *4:10 *4:9 16.2857
16 *4:4 *4:3 5
17 *4:18 *4:10 5
18 *4:4 *4:17 2.71429
19 *4:5 *4:18 0.678571
20 *4:17 *4:6 0.5
21 *4:6 *4:5 1.5
22 *317:B *4:6 5
*END

*D_NET *5 0.00330432

*CONN
*P *5 I *C 23.655 26.88 *L 0
*I *316:A2 I *C 10.13 5.915 *L 0.000975 *D AND2_X1
*I *315:B I *C 10.945 5.565 *L 0.00241 *D XOR2_X1

*CAP
1 *5 1.004e-05
2 *316:A2 1.662e-05
3 *315:B 8.03e-06
4 *5:3 0.000186
5 *5:4 0.000186
6 *5:5 0.00040252
7 *5:6 0.00040252
8 *5:7 0.0005544
9 *5:8 0.000546
10 *5:9 3.238e-05
11 *5:10 2.022e-05
12 *5:11 1.52e-05
13 *5:12 1.761e-05
14 *5:13 4.953e-05
15 *5:14 2.736e-05
16 *5:15 1.59e-05
17 *5:16 1.562e-05
18 *5:17 1.962e-05
19 *5:18 2.802e-05
20 *5:19 1.835e-05
21 *5:17 *63:9 4.23e-06
22 *5:18 *63:10 4.23e-06
23 *5:7 *63:9 0.00015773
24 *5:8 *63:10 0.00015773
25 *5:5 *63:11 9.13e-06
26 *5:6 *63:7 9.13e-06
27 *5:5 *63:7 8.686e-05
28 *5:6 *63:8 8.686e-05
29 *5:5 *63:5 5.03e-06
30 *5:6 *63:6 5.03e-06
31 *5:7 *20:25 2.17e-05
32 *5:8 *20:26 2.17e-05
33 *5:7 *20:27 2.019e-05
34 *5:8 *20:28 2.019e-05
35 *5:7 *20:21 6.132e-05
36 *5:8 *20:22 6.132e-05

*RES
1 *5:19 *5 0.95
2 *5:3 *5:19 5
3 *5:4 *5:3 17.5
4 *5:5 *5:4 5
5 *5:6 *5:5 45.8214
6 *5:17 *5:6 5
7 *5:18 *5:17 0.63
8 *5:7 *5:18 0.42
9 *5:8 *5:7 23.52
10 *5:16 *315:B 0.76
11 *5:11 *5:8 5
12 *5:15 *5:16 1.03143
13 *5:12 *5:11 5
14 *5:14 *5:15 5
15 *5:13 *5:12 1
16 *5:13 *5:14 1.35714
17 *5:10 *316:A2 5
18 *5:9 *5:13 1.35714
19 *5:9 *5:10 1.5
*END

*D_NET *6 0.00273721

*CONN
*P *6 I *C 22.705 26.88 *L 0
*I *314:A2 I *C 9.75 6.965 *L 0.000975 *D AND2_X1
*I *313:B I *C 10.565 7.315 *L 0.00241 *D XOR2_X1

*CAP
1 *6 1.004e-05
2 *314:A2 1.662e-05
3 *313:B 1.662e-05
4 *6:3 5.966e-05
5 *6:4 1.32e-05
6 *6:5 5.459e-05
7 *6:6 5.459e-05
8 *6:7 0.00023439
9 *6:8 0.00023471
10 *6:9 9.287e-05
11 *6:10 9.287e-05
12 *6:11 5.589e-05
13 *6:12 1.409e-05
14 *6:13 1.226e-05
15 *6:14 0.00021897
16 *6:15 1.748e-05
17 *6:16 6.906e-05
18 *6:17 7.602e-05
19 *6:18 6.126e-05
20 *6:19 5.398e-05
21 *6:20 1.835e-05
22 *6:21 2.266e-05
23 *6:22 2.494e-05
24 *6:23 0.00012728
25 *6:24 0.00012728
26 *6:25 0.00015426
27 *6:26 0.00015426
28 *6:27 0.00021502
29 *6:28 0.00021502
30 *6:29 0.00021897

*RES
1 *6:20 *6 0.95
2 *6:21 *6:20 5
3 *6:22 *6:21 1.5
4 *6:23 *6:22 0.678571
5 *6:24 *6:23 12
6 *6:24 *6:25 0.678571
7 *6:26 *6:25 16.5
8 *6:27 *6:26 0.678571
9 *6:28 *6:27 20
10 *6:28 *6:29 0.678571
11 *6:14 *6:29 20
12 *6:15 *6:14 0.678571
13 *6:16 *6:15 5
14 *6:17 *6:16 6.78571
15 *6:17 *6:9 1
16 *6:10 *6:9 7.46429
17 *6:18 *6:10 1
18 *6:19 *6:18 4.75
19 *6:19 *6:5 0.5
20 *6:6 *6:5 4.07143
21 *6:7 *6:6 0.5
22 *6:8 *6:7 19
23 *6:4 *6:8 5
24 *6:13 *313:B 5
25 *6:12 *314:A2 5
26 *6:4 *6:3 0.5
27 *6:3 *6:13 0.5
28 *6:12 *6:11 0.5
29 *6:11 *6:3 3.39286
*END

*D_NET *7 0.00219889

*CONN
*P *7 I *C 21.945 26.88 *L 0
*I *312:A2 I *C 16.47 5.915 *L 0.000975 *D AND2_X1
*I *311:B I *C 16.645 7.315 *L 0.00241 *D XOR2_X1

*CAP
1 *7 1.004e-05
2 *312:A2 1.662e-05
3 *311:B 1.662e-05
4 *7:3 5.994e-05
5 *7:4 4.778e-05
6 *7:5 0.00016146
7 *7:6 0.00016146
8 *7:7 8.798e-05
9 *7:8 8.798e-05
10 *7:9 4.115e-05
11 *7:10 3.621e-05
12 *7:11 0.00013939
13 *7:12 0.00015155
14 *7:13 6.755e-05
15 *7:14 6.755e-05
16 *7:15 3.026e-05
17 *7:16 5.856e-05
18 *7:17 5.856e-05
19 *7:18 5.825e-05
20 *7:19 6.091e-05
21 *7:20 4.615e-05
22 *7:21 1.976e-05
23 *7:22 4.114e-05
24 *7:23 4.146e-05
25 *7:24 8.382e-05
26 *7:25 9.432e-05
27 *7:26 1.698e-05
28 *7:27 1.525e-05
29 *7:28 8.715e-05
30 *7:29 7.727e-05
31 *7:30 6.721e-05
32 *7:31 6.721e-05
33 *7:32 4.764e-05
34 *7:33 7.371e-05

*RES
1 *7:26 *7 0.95
2 *7:27 *7:26 1.03143
3 *7:11 *7:27 5
4 *7:12 *7:11 15
5 *7:12 *7:5 1.35714
6 *7:6 *7:5 13.5
7 *7:28 *7:6 1.35714
8 *7:29 *7:28 6
9 *7:29 *7:7 0.678571
10 *7:8 *7:7 7.5
11 *7:30 *7:8 0.678571
12 *7:31 *7:30 5.5
13 *7:31 *7:9 0.678571
14 *7:10 *7:9 4
15 *7:16 *7:10 0.339286
16 *7:17 *7:16 6
17 *7:18 *7:17 0.339286
18 *7:19 *7:18 4.5
19 *7:20 *7:19 5
20 *7:33 *7:20 4.75
21 *7:32 *7:33 3.39286
22 *7:21 *7:32 1.35714
23 *7:21 *7:13 0.5
24 *7:14 *7:13 4.75
25 *7:22 *7:14 0.5
26 *7:23 *7:22 3.39286
27 *7:4 *312:A2 5
28 *7:24 *7:23 5
29 *7:4 *7:3 4.5
30 *7:25 *311:B 5
31 *7:25 *7:24 7
32 *7:3 *7:15 1.35714
33 *7:15 *7:25 1
*END

*D_NET *8 0.00242375

*CONN
*P *8 I *C 20.995 26.88 *L 0
*I *310:A2 I *C 14.69 5.915 *L 0.000975 *D AND2_X1
*I *309:B I *C 14.745 7.315 *L 0.00241 *D XOR2_X1

*CAP
1 *8 1.004e-05
2 *310:A2 1.662e-05
3 *309:B 1.662e-05
4 *8:3 3.019e-05
5 *8:4 2.791e-05
6 *8:5 7.994e-05
7 *8:6 4.009e-05
8 *8:7 7.252e-05
9 *8:8 7.284e-05
10 *8:9 4.973e-05
11 *8:10 2.981e-05
12 *8:11 2.949e-05
13 *8:12 5.418e-05
14 *8:13 5.418e-05
15 *8:14 3.239e-05
16 *8:15 3.066e-05
17 *8:16 7.184e-05
18 *8:17 7.184e-05
19 *8:18 0.00036228
20 *8:19 0.00036228
21 *8:20 5.367e-05
22 *8:21 4.527e-05
23 *8:22 1.399e-05
24 *8:23 1.399e-05
25 *8:24 0.00038649
26 *8:25 0.00039489

*RES
1 *8:14 *8 0.95
2 *8:15 *8:14 3.09429
3 *8:22 *8:15 5
4 *8:23 *8:22 0.5
5 *8:16 *8:23 5
6 *8:17 *8:16 5.28571
7 *8:24 *8:17 5
8 *8:25 *8:24 13.02
9 *8:18 *8:25 0.42
10 *8:19 *8:18 12.18
11 *8:19 *8:20 0.42
12 *8:21 *8:20 1.05
13 *8:10 *8:21 5
14 *8:11 *8:10 1.5
15 *8:12 *8:11 0.5
16 *8:13 *8:12 6.78571
17 *8:13 *8:7 0.5
18 *8:8 *8:7 6.10714
19 *8:4 *310:A2 5
20 *8:9 *8:8 5
21 *8:4 *8:3 2
22 *8:5 *309:B 5
23 *8:5 *8:9 6
24 *8:3 *8:6 0.678571
25 *8:6 *8:5 3.5
*END

*D_NET *9 0.00209952

*CONN
*P *9 I *C 20.235 26.88 *L 0
*I *308:A2 I *C 19.89 6.965 *L 0.000975 *D AND2_X1
*I *307:B I *C 20.065 5.565 *L 0.00241 *D XOR2_X1

*CAP
1 *9 1.004e-05
2 *308:A2 1.662e-05
3 *307:B 8.03e-06
4 *9:3 0.0001054
5 *9:4 7.233e-05
6 *9:5 1.804e-05
7 *9:6 1.804e-05
8 *9:7 1.32e-05
9 *9:8 1.32e-05
10 *9:9 4.295e-05
11 *9:10 0.00074624
12 *9:11 0.00074624
13 *9:12 1.724e-05
14 *9:13 1.724e-05
15 *9:14 1.748e-05
16 *9:15 1.59e-05
17 *9:16 1.562e-05
18 *9:17 1.835e-05
19 *9:10 *44:16 8.69e-05
20 *9:11 *44:17 8.69e-05
21 *9:7 *44:20 6.78e-06
22 *9:8 *44:3 6.78e-06

*RES
1 *9:17 *9 0.95
2 *9:5 *9:17 5
3 *9:6 *9:5 1
4 *9:12 *9:6 5
5 *9:13 *9:12 0.607143
6 *9:10 *9:13 5
7 *9:11 *9:10 26.46
8 *9:7 *9:11 5
9 *9:8 *9:7 0.75
10 *9:16 *307:B 0.76
11 *9:9 *9:8 5
12 *9:15 *9:16 1.03143
13 *9:3 *308:A2 5
14 *9:3 *9:9 6
15 *9:14 *9:15 5
16 *9:4 *9:3 6
17 *9:4 *9:14 0.678571
*END

*D_NET *10 0.00173506

*CONN
*P *10 I *C 19.285 26.88 *L 0
*I *306:A2 I *C 19.25 5.915 *L 0.000975 *D AND2_X1
*I *305:B I *C 18.695 5.565 *L 0.00241 *D XOR2_X1

*CAP
1 *10 1.004e-05
2 *306:A2 1.662e-05
3 *305:B 8.03e-06
4 *10:3 0.00017036
5 *10:4 0.00016542
6 *10:5 6.608e-05
7 *10:6 7.102e-05
8 *10:7 0.00010741
9 *10:8 0.00010247
10 *10:9 4.194e-05
11 *10:10 4.194e-05
12 *10:11 6.075e-05
13 *10:12 6.075e-05
14 *10:13 2.576e-05
15 *10:14 2.576e-05
16 *10:15 5.398e-05
17 *10:16 3.953e-05
18 *10:17 1.749e-05
19 *10:18 1.59e-05
20 *10:19 1.562e-05
21 *10:20 4.893e-05
22 *10:21 4.893e-05
23 *10:22 2.159e-05
24 *10:23 4.859e-05
25 *10:24 1.835e-05
26 *10:25 0.00011683
27 *10:26 0.00012899
28 *10:27 7.605e-05
29 *10:28 2.188e-05
30 *10:29 2.188e-05
31 *10:30 6.617e-05

*RES
1 *10:24 *10 0.95
2 *10:25 *10:24 5
3 *10:26 *10:25 11.5
4 *10:26 *10:27 1.35714
5 *10:30 *10:27 5.5
6 *10:29 *10:30 0.678571
7 *10:28 *10:29 1
8 *10:11 *10:28 0.678571
9 *10:12 *10:11 5.5
10 *10:13 *10:12 0.678571
11 *10:14 *10:13 2
12 *10:14 *10:7 0.678571
13 *10:8 *10:7 14.5
14 *10:9 *10:8 0.339286
15 *10:10 *10:9 6
16 *10:5 *10:10 0.339286
17 *10:6 *10:5 6
18 *10:6 *10:3 0.678571
19 *10:4 *10:3 17
20 *10:19 *305:B 0.76
21 *10:4 *10:20 0.339286
22 *10:19 *10:18 1.03143
23 *10:21 *10:20 4
24 *10:17 *10:18 5
25 *10:22 *10:21 0.339286
26 *10:16 *10:17 1
27 *10:23 *306:A2 5
28 *10:23 *10:22 1.5
29 *10:16 *10:15 2.03571
30 *10:15 *10:23 2.5
*END

*D_NET *11 0.00186755

*CONN
*P *11 I *C 18.335 26.88 *L 0
*I *304:A2 I *C 21.53 9.765 *L 0.000975 *D AND2_X1
*I *303:B I *C 21.395 8.365 *L 0.00241 *D XOR2_X1

*CAP
1 *11 1.004e-05
2 *304:A2 1.662e-05
3 *303:B 1.662e-05
4 *11:3 0.00022475
5 *11:4 0.00022703
6 *11:5 0.00021974
7 *11:6 0.00021746
8 *11:7 8.528e-05
9 *11:8 0.0001453
10 *11:9 6.762e-05
11 *11:10 3.894e-05
12 *11:11 3.894e-05
13 *11:12 1.548e-05
14 *11:13 1.721e-05
15 *11:14 1.52e-05
16 *11:15 1.99e-05
17 *11:16 1.958e-05
18 *11:17 6.992e-05
19 *11:18 6.992e-05
20 *11:19 9.172e-05
21 *11:20 9.204e-05
22 *11:21 7.412e-05
23 *11:22 7.412e-05

*RES
1 *11:13 *11 0.95
2 *11:13 *11:12 1.03143
3 *11:14 *11:12 5
4 *11:15 *11:14 5
5 *11:15 *11:16 1.35714
6 *11:16 *11:17 0.5
7 *11:17 *11:18 6.10714
8 *11:19 *11:18 0.5
9 *11:19 *11:20 8.82143
10 *11:3 *11:20 5
11 *11:4 *11:3 24
12 *11:4 *11:21 0.678571
13 *11:22 *11:21 6.5
14 *11:5 *11:22 0.678571
15 *11:6 *11:5 20.5
16 *11:10 *11:6 5
17 *11:11 *11:10 5.42857
18 *11:7 *11:11 5
19 *11:8 *304:A2 5
20 *11:8 *11:7 9
21 *11:9 *303:B 5
22 *11:9 *11:8 5.5
*END

*D_NET *12 0.00159161

*CONN
*P *12 I *C 17.575 26.88 *L 0
*I *302:A2 I *C 19.44 8.715 *L 0.000975 *D AND2_X1
*I *301:B I *C 20.255 8.365 *L 0.00241 *D XOR2_X1

*CAP
1 *12 1.004e-05
2 *302:A2 1.662e-05
3 *301:B 1.662e-05
4 *12:3 0.00028799
5 *12:4 0.00028799
6 *12:5 0.00015293
7 *12:6 0.00015293
8 *12:7 2.617e-05
9 *12:8 2.845e-05
10 *12:9 5.804e-05
11 *12:10 6.746e-05
12 *12:11 1.436e-05
13 *12:12 4.925e-05
14 *12:13 4.431e-05
15 *12:14 6.659e-05
16 *12:15 6.659e-05
17 *12:16 3.143e-05
18 *12:17 3.316e-05
19 *12:18 5.209e-05
20 *12:19 5.209e-05
21 *12:20 2.592e-05
22 *12:21 2.592e-05
23 *12:22 1.233e-05
24 *12:23 1.233e-05

*RES
1 *12:17 *12 0.95
2 *12:17 *12:16 3.09429
3 *12:3 *12:16 5
4 *12:4 *12:3 29.5
5 *12:19 *12:4 5
6 *12:19 *12:18 4.75
7 *12:7 *12:18 5
8 *12:8 *12:7 1.5
9 *12:8 *12:5 0.678571
10 *12:6 *12:5 15
11 *12:23 *301:B 5
12 *12:12 *12:6 0.678571
13 *12:23 *12:22 0.5
14 *12:13 *12:12 5
15 *12:21 *12:22 5
16 *12:13 *12:14 0.339286
17 *12:20 *12:21 3.39286
18 *12:15 *12:14 7.5
19 *12:11 *12:20 5
20 *12:9 *12:15 0.339286
21 *12:11 *12:10 0.5
22 *12:10 *12:9 6
23 *302:A2 *12:10 5
*END

*D_NET *13 0.00148399

*CONN
*P *13 I *C 16.625 26.88 *L 0
*I *300:A2 I *C 20.84 14.315 *L 0.000975 *D AND2_X1
*I *299:B I *C 21.395 13.965 *L 0.00241 *D XOR2_X1

*CAP
1 *13 2.609e-05
2 *300:A2 1.662e-05
3 *299:B 1.662e-05
4 *13:3 0.00012001
5 *13:4 0.00012495
6 *13:5 1.399e-05
7 *13:6 1.399e-05
8 *13:7 0.00017638
9 *13:8 0.00017372
10 *13:9 9.091e-05
11 *13:10 8.088e-05
12 *13:11 6.316e-05
13 *13:12 6.316e-05
14 *13:13 3.147e-05
15 *13:14 2.372e-05
16 *13:15 4.299e-05
17 *13:16 4.299e-05
18 *13:17 9.234e-05
19 *13:18 9.234e-05
20 *13:19 4.866e-05
21 *13:20 5.361e-05
22 *13:21 1.483e-05
23 *13:22 3.028e-05
24 *13:23 3.028e-05

*RES
1 *13:9 *13 2.47
2 *13:9 *13:10 8.25143
3 *13:11 *13:10 1.52
4 *13:11 *13:12 12.3771
5 *13:12 *13:13 1.52
6 *13:13 *13:14 2.06286
7 *13:7 *13:14 5
8 *13:8 *13:7 17.5
9 *13:15 *13:8 0.339286
10 *13:16 *13:15 4
11 *13:6 *299:B 5
12 *13:16 *13:3 0.339286
13 *13:6 *13:5 0.5
14 *13:4 *13:3 12.5
15 *13:23 *13:5 5
16 *13:4 *13:17 0.678571
17 *13:22 *13:23 2.71429
18 *13:18 *13:17 6
19 *13:21 *13:22 5
20 *13:19 *13:18 0.678571
21 *13:21 *13:20 0.5
22 *13:20 *13:19 3.5
23 *300:A2 *13:20 5
*END

*D_NET *14 0.0018783

*CONN
*P *14 I *C 15.865 26.88 *L 0
*I *298:A2 I *C 20.08 12.565 *L 0.000975 *D AND2_X1
*I *297:B I *C 20.635 12.915 *L 0.00241 *D XOR2_X1

*CAP
1 *14 1.662e-05
2 *298:A2 1.662e-05
3 *297:B 1.662e-05
4 *14:3 1.937e-05
5 *14:4 1.937e-05
6 *14:5 0.00018768
7 *14:6 0.00018388
8 *14:7 1.52e-05
9 *14:8 1.52e-05
10 *14:9 0.00013925
11 *14:10 0.00016489
12 *14:11 0.00028148
13 *14:12 0.00028148
14 *14:13 7.854e-05
15 *14:14 5.29e-05
16 *14:15 0.00016466
17 *14:16 0.0001908
18 *14:17 3.374e-05

*RES
1 *14:5 *14 5
2 *14:6 *14:5 18.625
3 *14:8 *14:6 5
4 *14:9 *14:8 5
5 *14:10 *14:9 3.78
6 *14:11 *14:10 0.84
7 *14:12 *14:11 8.61
8 *14:12 *14:13 0.84
9 *14:3 *297:B 5
10 *14:14 *14:13 1.05
11 *14:4 *14:3 1
12 *14:15 *14:14 5
13 *14:17 *14:4 5
14 *14:15 *14:16 14.9286
15 *14:16 *14:17 2.71429
16 *14:7 *298:A2 5
17 *14:7 *14:16 5
*END

*D_NET *15 0.00141155

*CONN
*P *15 I *C 14.915 26.88 *L 0
*I *296:A2 I *C 18.87 15.365 *L 0.000975 *D AND2_X1
*I *295:B I *C 18.315 15.715 *L 0.00241 *D XOR2_X1

*CAP
1 *15 3.412e-05
2 *296:A2 1.662e-05
3 *295:B 1.662e-05
4 *15:3 8.61e-05
5 *15:4 8.61e-05
6 *15:5 5.59e-05
7 *15:6 6.578e-05
8 *15:7 4.86e-05
9 *15:8 1.236e-05
10 *15:9 1.261e-05
11 *15:10 1.261e-05
12 *15:11 3.032e-05
13 *15:12 6.95e-05
14 *15:13 0.00010359
15 *15:14 5.119e-05
16 *15:15 5.119e-05
17 *15:16 9.022e-05
18 *15:17 2.266e-05
19 *15:18 2.494e-05
20 *15:19 0.00016177
21 *15:20 0.00016177
22 *15:21 7.049e-05