*SPEF "IEEE 1481-1998"
*DESIGN "multiplier_NBIT16"
*DATE "Mon May 31 12:17:03 2021"
*VENDOR "Cadence Design Systems, Inc."
*PROGRAM "Innovus"
*VERSION "17.11-s080_1"
*DESIGN_FLOW "COUPLING C" "PIN_CAP NONE" "NAME_SCOPE LOCAL"
*DIVIDER /
*DELIMITER :
*BUS_DELIMITER []
*T_UNIT 1 NS
*C_UNIT 1 PF
*R_UNIT 1 OHM
*L_UNIT 1 HENRY

// MMMC spef file for corner 'standard'

*NAME_MAP

*1 MUXi_3/FE_OFN14_n26
*2 MUXi_3/FE_OFN13_n27
*3 MUXi_4/FE_OFN12_n28
*4 MUXi_4/FE_OFN11_n29
*5 MUXi_5/FE_OFN10_n31
*6 MUXi_5/FE_OFN9_n30
*7 MUXi_6/FE_OFN8_n33
*8 MUXi_6/FE_OFN7_n32
*9 MUXi_7/FE_OFN6_n34
*10 MUXi_7/FE_OFN5_n35
*11 MUXi_3/FE_OFN4_sel_3__1
*12 MUXi_4/FE_OFN3_sel_4__1
*13 MUXi_5/FE_OFN2_sel_5__1
*14 MUXi_6/FE_OFN1_sel_6__1
*15 MUXi_7/FE_OFN0_sel_7__1
*16 ADDERi_0/FE_DBTN4_mux_out_0_2
*17 ADDERi_7/FE_DBTN3_B_15
*18 ADDERi_6/FE_DBTN2_B_13
*19 ADDERi_5/FE_DBTN1_B_11
*20 ADDERi_4/FE_DBTN0_B_9
*21 A[15]
*22 A[14]
*23 A[13]
*24 A[12]
*25 A[11]
*26 A[10]
*27 A[9]
*28 A[8]
*29 A[7]
*30 A[6]
*31 A[5]
*32 A[4]
*33 A[3]
*34 A[2]
*35 A[1]
*36 A[0]
*37 B[15]
*38 B[14]
*39 B[13]
*40 B[12]
*41 B[11]
*42 B[10]
*43 B[9]
*44 B[8]
*45 B[7]
*46 B[6]
*47 B[5]
*48 B[4]
*49 B[3]
*50 B[2]
*51 B[1]
*52 B[0]
*53 Y[31]
*54 Y[30]
*55 Y[29]
*56 Y[28]
*57 Y[27]
*58 Y[26]
*59 Y[25]
*60 Y[24]
*61 Y[23]
*62 Y[22]
*63 Y[21]
*64 Y[20]
*65 Y[19]
*66 Y[18]
*67 Y[17]
*68 Y[16]
*69 Y[15]
*70 Y[14]
*71 Y[13]
*72 Y[12]
*73 Y[11]
*74 Y[10]
*75 Y[9]
*76 Y[8]
*77 Y[7]
*78 Y[6]
*79 Y[5]
*80 Y[4]
*81 Y[3]
*82 Y[2]
*83 Y[1]
*84 Y[0]
*85 sum\[1\]\[17\]
*86 sum\[1\]\[16\]
*87 sum\[1\]\[15\]
*88 sum\[1\]\[14\]
*89 sum\[1\]\[13\]
*90 sum\[1\]\[12\]
*91 sum\[1\]\[11\]
*92 sum\[1\]\[10\]
*93 sum\[1\]\[9\]
*94 sum\[1\]\[8\]
*95 sum\[1\]\[7\]
*96 sum\[1\]\[6\]
*97 sum\[1\]\[5\]
*98 sum\[1\]\[4\]
*99 sum\[1\]\[3\]
*100 sum\[1\]\[2\]
*101 sum\[1\]\[1\]
*102 sum\[1\]\[0\]
*103 sum\[2\]\[19\]
*104 sum\[2\]\[18\]
*105 sum\[2\]\[17\]
*106 sum\[2\]\[16\]
*107 sum\[2\]\[15\]
*108 sum\[2\]\[14\]
*109 sum\[2\]\[13\]
*110 sum\[2\]\[12\]
*111 sum\[2\]\[11\]
*112 sum\[2\]\[10\]
*113 sum\[2\]\[9\]
*114 sum\[2\]\[8\]
*115 sum\[2\]\[7\]
*116 sum\[2\]\[6\]
*117 sum\[2\]\[5\]
*118 sum\[2\]\[4\]
*119 sum\[2\]\[3\]
*120 sum\[2\]\[2\]
*121 sum\[2\]\[1\]
*122 sum\[2\]\[0\]
*123 sum\[3\]\[21\]
*124 sum\[3\]\[20\]
*125 sum\[3\]\[19\]
*126 sum\[3\]\[18\]
*127 sum\[3\]\[17\]
*128 sum\[3\]\[16\]
*129 sum\[3\]\[15\]
*130 sum\[3\]\[14\]
*131 sum\[3\]\[13\]
*132 sum\[3\]\[12\]
*133 sum\[3\]\[11\]
*134 sum\[3\]\[10\]
*135 sum\[3\]\[9\]
*136 sum\[3\]\[8\]
*137 sum\[3\]\[7\]
*138 sum\[3\]\[6\]
*139 sum\[3\]\[5\]
*140 sum\[3\]\[4\]
*141 sum\[3\]\[3\]
*142 sum\[3\]\[2\]
*143 sum\[3\]\[1\]
*144 sum\[3\]\[0\]
*145 sum\[4\]\[23\]
*146 sum\[4\]\[22\]
*147 sum\[4\]\[21\]
*148 sum\[4\]\[20\]
*149 sum\[4\]\[19\]
*150 sum\[4\]\[18\]
*151 sum\[4\]\[17\]
*152 sum\[4\]\[16\]
*153 sum\[4\]\[15\]
*154 sum\[4\]\[14\]
*155 sum\[4\]\[13\]
*156 sum\[4\]\[12\]
*157 sum\[4\]\[11\]
*158 sum\[4\]\[10\]
*159 sum\[4\]\[9\]
*160 sum\[4\]\[8\]
*161 sum\[4\]\[7\]
*162 sum\[4\]\[6\]
*163 sum\[4\]\[5\]
*164 sum\[4\]\[4\]
*165 sum\[4\]\[3\]
*166 sum\[4\]\[2\]
*167 sum\[4\]\[1\]
*168 sum\[4\]\[0\]
*169 sum\[5\]\[25\]
*170 sum\[5\]\[24\]
*171 sum\[5\]\[23\]
*172 sum\[5\]\[22\]
*173 sum\[5\]\[21\]
*174 sum\[5\]\[20\]
*175 sum\[5\]\[19\]
*176 sum\[5\]\[18\]
*177 sum\[5\]\[17\]
*178 sum\[5\]\[16\]
*179 sum\[5\]\[15\]
*180 sum\[5\]\[14\]
*181 sum\[5\]\[13\]
*182 sum\[5\]\[12\]
*183 sum\[5\]\[11\]
*184 sum\[5\]\[10\]
*185 sum\[5\]\[9\]
*186 sum\[5\]\[8\]
*187 sum\[5\]\[7\]
*188 sum\[5\]\[6\]
*189 sum\[5\]\[5\]
*190 sum\[5\]\[4\]
*191 sum\[5\]\[3\]
*192 sum\[5\]\[2\]
*193 sum\[5\]\[1\]
*194 sum\[5\]\[0\]
*195 sum\[6\]\[27\]
*196 sum\[6\]\[26\]
*197 sum\[6\]\[25\]
*198 sum\[6\]\[24\]
*199 sum\[6\]\[23\]
*200 sum\[6\]\[22\]
*201 sum\[6\]\[21\]
*202 sum\[6\]\[20\]
*203 sum\[6\]\[19\]
*204 sum\[6\]\[18\]
*205 sum\[6\]\[17\]
*206 sum\[6\]\[16\]
*207 sum\[6\]\[15\]
*208 sum\[6\]\[14\]
*209 sum\[6\]\[13\]
*210 sum\[6\]\[12\]
*211 sum\[6\]\[11\]
*212 sum\[6\]\[10\]
*213 sum\[6\]\[9\]
*214 sum\[6\]\[8\]
*215 sum\[6\]\[7\]
*216 sum\[6\]\[6\]
*217 sum\[6\]\[5\]
*218 sum\[6\]\[4\]
*219 sum\[6\]\[3\]
*220 sum\[6\]\[2\]
*221 sum\[6\]\[1\]
*222 sum\[6\]\[0\]
*223 sum\[7\]\[29\]
*224 sum\[7\]\[28\]
*225 sum\[7\]\[27\]
*226 sum\[7\]\[26\]
*227 sum\[7\]\[25\]
*228 sum\[7\]\[24\]
*229 sum\[7\]\[23\]
*230 sum\[7\]\[22\]
*231 sum\[7\]\[21\]
*232 sum\[7\]\[20\]
*233 sum\[7\]\[19\]
*234 sum\[7\]\[18\]
*235 sum\[7\]\[17\]
*236 sum\[7\]\[16\]
*237 sum\[7\]\[15\]
*238 sum\[7\]\[14\]
*239 sum\[7\]\[13\]
*240 sum\[7\]\[12\]
*241 sum\[7\]\[11\]
*242 sum\[7\]\[10\]
*243 sum\[7\]\[9\]
*244 sum\[7\]\[8\]
*245 sum\[7\]\[7\]
*246 sum\[7\]\[6\]
*247 sum\[7\]\[5\]
*248 sum\[7\]\[4\]
*249 sum\[7\]\[3\]
*250 sum\[7\]\[2\]
*251 sum\[7\]\[1\]
*252 sum\[7\]\[0\]
*253 sel\[0\]\[1\]
*254 sel\[0\]\[0\]
*255 sel\[1\]\[1\]
*256 sel\[1\]\[0\]
*257 sel\[2\]\[1\]
*258 sel\[2\]\[0\]
*259 sel\[3\]\[1\]
*260 sel\[3\]\[0\]
*261 sel\[4\]\[1\]
*262 sel\[4\]\[0\]
*263 sel\[5\]\[1\]
*264 sel\[5\]\[0\]
*265 sel\[6\]\[1\]
*266 sel\[6\]\[0\]
*267 sel\[7\]\[1\]
*268 sel\[7\]\[0\]
*269 mux_out\[0\]\[16\]
*270 mux_out\[0\]\[15\]
*271 mux_out\[0\]\[14\]
*272 mux_out\[0\]\[13\]
*273 mux_out\[0\]\[12\]
*274 mux_out\[0\]\[11\]
*275 mux_out\[0\]\[10\]
*276 mux_out\[0\]\[9\]
*277 mux_out\[0\]\[8\]
*278 mux_out\[0\]\[7\]
*279 mux_out\[0\]\[6\]
*280 mux_out\[0\]\[5\]
*281 mux_out\[0\]\[4\]
*282 mux_out\[0\]\[3\]
*283 mux_out\[0\]\[2\]
*284 mux_out\[0\]\[1\]
*285 mux_out\[0\]\[0\]
*286 mux_out\[1\]\[18\]
*287 mux_out\[1\]\[17\]
*288 mux_out\[1\]\[16\]
*289 mux_out\[1\]\[15\]
*290 mux_out\[1\]\[14\]
*291 mux_out\[1\]\[13\]
*292 mux_out\[1\]\[12\]
*293 mux_out\[1\]\[11\]
*294 mux_out\[1\]\[10\]
*295 mux_out\[1\]\[9\]
*296 mux_out\[1\]\[8\]
*297 mux_out\[1\]\[7\]
*298 mux_out\[1\]\[6\]
*299 mux_out\[1\]\[5\]
*300 mux_out\[1\]\[4\]
*301 mux_out\[1\]\[3\]
*302 mux_out\[1\]\[2\]
*303 mux_out\[1\]\[1\]
*304 mux_out\[1\]\[0\]
*305 mux_out\[2\]\[20\]
*306 mux_out\[2\]\[19\]
*307 mux_out\[2\]\[18\]
*308 mux_out\[2\]\[17\]
*309 mux_out\[2\]\[16\]
*310 mux_out\[2\]\[15\]
*311 mux_out\[2\]\[14\]
*312 mux_out\[2\]\[13\]
*313 mux_out\[2\]\[12\]
*314 mux_out\[2\]\[11\]
*315 mux_out\[2\]\[10\]
*316 mux_out\[2\]\[9\]
*317 mux_out\[2\]\[8\]
*318 mux_out\[2\]\[7\]
*319 mux_out\[2\]\[6\]
*320 mux_out\[2\]\[5\]
*321 mux_out\[2\]\[4\]
*322 mux_out\[2\]\[3\]
*323 mux_out\[2\]\[2\]
*324 mux_out\[2\]\[1\]
*325 mux_out\[2\]\[0\]
*326 mux_out\[3\]\[22\]
*327 mux_out\[3\]\[21\]
*328 mux_out\[3\]\[20\]
*329 mux_out\[3\]\[19\]
*330 mux_out\[3\]\[18\]
*331 mux_out\[3\]\[17\]
*332 mux_out\[3\]\[16\]
*333 mux_out\[3\]\[15\]
*334 mux_out\[3\]\[14\]
*335 mux_out\[3\]\[13\]
*336 mux_out\[3\]\[12\]
*337 mux_out\[3\]\[11\]
*338 mux_out\[3\]\[10\]
*339 mux_out\[3\]\[9\]
*340 mux_out\[3\]\[8\]
*341 mux_out\[3\]\[7\]
*342 mux_out\[3\]\[6\]
*343 mux_out\[3\]\[5\]
*344 mux_out\[3\]\[4\]
*345 mux_out\[3\]\[3\]
*346 mux_out\[3\]\[2\]
*347 mux_out\[3\]\[1\]
*348 mux_out\[3\]\[0\]
*349 mux_out\[4\]\[24\]
*350 mux_out\[4\]\[23\]
*351 mux_out\[4\]\[22\]
*352 mux_out\[4\]\[21\]
*353 mux_out\[4\]\[20\]
*354 mux_out\[4\]\[19\]
*355 mux_out\[4\]\[18\]
*356 mux_out\[4\]\[17\]
*357 mux_out\[4\]\[16\]
*358 mux_out\[4\]\[15\]
*359 mux_out\[4\]\[14\]
*360 mux_out\[4\]\[13\]
*361 mux_out\[4\]\[12\]
*362 mux_out\[4\]\[11\]
*363 mux_out\[4\]\[10\]
*364 mux_out\[4\]\[9\]
*365 mux_out\[4\]\[8\]
*366 mux_out\[4\]\[7\]
*367 mux_out\[4\]\[6\]
*368 mux_out\[4\]\[5\]
*369 mux_out\[4\]\[4\]
*370 mux_out\[4\]\[3\]
*371 mux_out\[4\]\[2\]
*372 mux_out\[4\]\[1\]
*373 mux_out\[4\]\[0\]
*374 mux_out\[5\]\[26\]
*375 mux_out\[5\]\[25\]
*376 mux_out\[5\]\[24\]
*377 mux_out\[5\]\[23\]
*378 mux_out\[5\]\[22\]
*379 mux_out\[5\]\[21\]
*380 mux_out\[5\]\[20\]
*381 mux_out\[5\]\[19\]
*382 mux_out\[5\]\[18\]
*383 mux_out\[5\]\[17\]
*384 mux_out\[5\]\[16\]
*385 mux_out\[5\]\[15\]
*386 mux_out\[5\]\[14\]
*387 mux_out\[5\]\[13\]
*388 mux_out\[5\]\[12\]
*389 mux_out\[5\]\[11\]
*390 mux_out\[5\]\[10\]
*391 mux_out\[5\]\[9\]
*392 mux_out\[5\]\[8\]
*393 mux_out\[5\]\[7\]
*394 mux_out\[5\]\[6\]
*395 mux_out\[5\]\[5\]
*396 mux_out\[5\]\[4\]
*397 mux_out\[5\]\[3\]
*398 mux_out\[5\]\[2\]
*399 mux_out\[5\]\[1\]
*400 mux_out\[5\]\[0\]
*401 mux_out\[6\]\[28\]
*402 mux_out\[6\]\[27\]
*403 mux_out\[6\]\[26\]
*404 mux_out\[6\]\[25\]
*405 mux_out\[6\]\[24\]
*406 mux_out\[6\]\[23\]
*407 mux_out\[6\]\[22\]
*408 mux_out\[6\]\[21\]
*409 mux_out\[6\]\[20\]
*410 mux_out\[6\]\[19\]
*411 mux_out\[6\]\[18\]
*412 mux_out\[6\]\[17\]
*413 mux_out\[6\]\[16\]
*414 mux_out\[6\]\[15\]
*415 mux_out\[6\]\[14\]
*416 mux_out\[6\]\[13\]
*417 mux_out\[6\]\[12\]
*418 mux_out\[6\]\[11\]
*419 mux_out\[6\]\[10\]
*420 mux_out\[6\]\[9\]
*421 mux_out\[6\]\[8\]
*422 mux_out\[6\]\[7\]
*423 mux_out\[6\]\[6\]
*424 mux_out\[6\]\[5\]
*425 mux_out\[6\]\[4\]
*426 mux_out\[6\]\[3\]
*427 mux_out\[6\]\[2\]
*428 mux_out\[6\]\[1\]
*429 mux_out\[6\]\[0\]
*430 mux_out\[7\]\[30\]
*431 mux_out\[7\]\[29\]
*432 mux_out\[7\]\[28\]
*433 mux_out\[7\]\[27\]
*434 mux_out\[7\]\[26\]
*435 mux_out\[7\]\[25\]
*436 mux_out\[7\]\[24\]
*437 mux_out\[7\]\[23\]
*438 mux_out\[7\]\[22\]
*439 mux_out\[7\]\[21\]
*440 mux_out\[7\]\[20\]
*441 mux_out\[7\]\[19\]
*442 mux_out\[7\]\[18\]
*443 mux_out\[7\]\[17\]
*444 mux_out\[7\]\[16\]
*445 mux_out\[7\]\[15\]
*446 mux_out\[7\]\[14\]
*447 mux_out\[7\]\[13\]
*448 mux_out\[7\]\[12\]
*449 mux_out\[7\]\[11\]
*450 mux_out\[7\]\[10\]
*451 mux_out\[7\]\[9\]
*452 mux_out\[7\]\[8\]
*453 mux_out\[7\]\[7\]
*454 mux_out\[7\]\[6\]
*455 mux_out\[7\]\[5\]
*456 mux_out\[7\]\[4\]
*457 mux_out\[7\]\[3\]
*458 mux_out\[7\]\[2\]
*459 mux_out\[7\]\[1\]
*460 mux_out\[7\]\[0\]
*461 ENCi_0/n1
*462 ENCi_0/n4
*463 MUXi_0/n19
*464 MUXi_0/n20
*465 MUXi_0/n21
*466 MUXi_0/n22
*467 MUXi_0/n23
*468 MUXi_0/n24
*469 MUXi_0/n25
*470 MUXi_0/n26
*471 MUXi_0/n27
*472 MUXi_0/n28
*473 MUXi_0/n29
*474 MUXi_0/n30
*475 MUXi_0/n31
*476 MUXi_0/n32
*477 MUXi_0/n33
*478 MUXi_0/n34
*479 MUXi_0/n35
*480 MUXi_0/n36
*481 MUXi_0/net49182
*482 MUXi_0/n39
*483 MUXi_0/n41
*484 MUXi_0/n43
*485 MUXi_0/n44
*486 MUXi_0/n45
*487 MUXi_0/n46
*488 ADDERi_0/N2
*489 ADDERi_0/N3
*490 ADDERi_0/N4
*491 ADDERi_0/N5
*492 ADDERi_0/N6
*493 ADDERi_0/N7
*494 ADDERi_0/N8
*495 ADDERi_0/N9
*496 ADDERi_0/N10
*497 ADDERi_0/N11
*498 ADDERi_0/N12
*499 ADDERi_0/N13
*500 ADDERi_0/N14
*501 ADDERi_0/N15
*502 ADDERi_0/N16
*503 ADDERi_0/N17
*504 ADDERi_0/N18
*505 ADDERi_0/N19
*506 ADDERi_0/N21
*507 ADDERi_0/N22
*508 ADDERi_0/N23
*509 ADDERi_0/N24
*510 ADDERi_0/N25
*511 ADDERi_0/N26
*512 ADDERi_0/N27
*513 ADDERi_0/N28
*514 ADDERi_0/N29
*515 ADDERi_0/N30
*516 ADDERi_0/N31
*517 ADDERi_0/N32
*518 ADDERi_0/N33
*519 ADDERi_0/N34
*520 ADDERi_0/N35
*521 ADDERi_0/N36
*522 ADDERi_0/N37
*523 ADDERi_0/N38
*524 ADDERi_0/n24
*525 ADDERi_0/n25
*526 ADDERi_0/n26
*527 ADDERi_0/n27
*528 ADDERi_0/n28
*529 ADDERi_0/n29
*530 ADDERi_0/n30
*531 ADDERi_0/n31
*532 ADDERi_0/n32
*533 ADDERi_0/n33
*534 ADDERi_0/n34
*535 ADDERi_0/n35
*536 ADDERi_0/n36
*537 ADDERi_0/n37
*538 ADDERi_0/n38
*539 ADDERi_0/n39
*540 ADDERi_0/n40
*541 ADDERi_0/n41
*542 ADDERi_0/n62
*543 ADDERi_0/sub_20/n76
*544 ADDERi_0/sub_20/n77
*545 ADDERi_0/sub_20/n78
*546 ADDERi_0/sub_20/n79
*547 ADDERi_0/sub_20/n80
*548 ADDERi_0/sub_20/n81
*549 ADDERi_0/sub_20/n83
*550 ADDERi_0/sub_20/n84
*551 ADDERi_0/sub_20/n85
*552 ADDERi_0/sub_20/n86
*553 ADDERi_0/sub_20/n87
*554 ADDERi_0/sub_20/n89
*555 ADDERi_0/sub_20/n90
*556 ADDERi_0/sub_20/n92
*557 ADDERi_0/sub_20/n93
*558 ADDERi_0/sub_20/n94
*559 ADDERi_0/sub_20/n95
*560 ADDERi_0/sub_20/n96
*561 ADDERi_0/sub_20/n97
*562 ADDERi_0/sub_20/n98
*563 ADDERi_0/sub_20/n100
*564 ADDERi_0/sub_20/n55
*565 ADDERi_0/sub_20/n56
*566 ADDERi_0/sub_20/n57
*567 ADDERi_0/sub_20/n62
*568 ADDERi_0/sub_20/n63
*569 ADDERi_0/sub_20/n64
*570 ADDERi_0/sub_20/n65
*571 ADDERi_0/sub_20/n66
*572 ADDERi_0/sub_20/n67
*573 ADDERi_0/sub_20/n68
*574 ADDERi_0/sub_20/n69
*575 ADDERi_0/sub_20/n70
*576 ADDERi_0/sub_20/n72
*577 ADDERi_0/sub_20/n74
*578 ADDERi_0/sub_20/n75
*579 ADDERi_0/sub_20/n82
*580 ADDERi_0/sub_20/n88
*581 ADDERi_0/sub_20/n91
*582 ADDERi_0/sub_20/n99
*583 ADDERi_0/sub_20/n101
*584 ADDERi_0/sub_20/n102
*585 ADDERi_0/sub_20/n103
*586 ADDERi_0/sub_20/n104
*587 ADDERi_0/sub_20/n105
*588 ADDERi_0/sub_20/n106
*589 ADDERi_0/sub_20/n107
*590 ADDERi_0/sub_20/n108
*591 ADDERi_0/sub_20/n110
*592 ADDERi_0/sub_20/n111
*593 ADDERi_0/sub_20/n112
*594 ADDERi_0/sub_20/n113
*595 ADDERi_0/sub_20/n114
*596 ADDERi_0/sub_20/n115
*597 ADDERi_0/sub_20/n116
*598 ADDERi_0/sub_20/n117
*599 ADDERi_0/sub_20/n118
*600 ADDERi_0/sub_20/carry[17]
*601 ADDERi_0/sub_20/carry[16]
*602 ADDERi_0/sub_20/carry[15]
*603 ADDERi_0/sub_20/carry[14]
*604 ADDERi_0/sub_20/carry[13]
*605 ADDERi_0/sub_20/carry[12]
*606 ADDERi_0/sub_20/carry[11]
*607 ADDERi_0/sub_20/carry[10]
*608 ADDERi_0/sub_20/carry[9]
*609 ADDERi_0/sub_20/carry[8]
*610 ADDERi_0/add_20/carry[17]
*611 ADDERi_0/add_20/carry[16]
*612 ADDERi_0/add_20/carry[15]
*613 ADDERi_0/add_20/carry[14]
*614 ADDERi_0/add_20/carry[13]
*615 ADDERi_0/add_20/carry[12]
*616 ADDERi_0/add_20/carry[11]
*617 ADDERi_0/add_20/carry[10]
*618 ADDERi_0/add_20/carry[9]
*619 ADDERi_0/add_20/carry[8]
*620 ADDERi_0/add_20/carry[7]
*621 ADDERi_0/add_20/carry[6]
*622 ADDERi_0/add_20/carry[5]
*623 ADDERi_0/add_20/carry[4]
*624 ADDERi_0/add_20/carry[3]
*625 ADDERi_0/add_20/carry[2]
*626 ADDERi_0/add_20/carry[1]
*627 ENCi_1/n2
*628 MUXi_1/n21
*629 MUXi_1/n22
*630 MUXi_1/n23
*631 MUXi_1/n24
*632 MUXi_1/n25
*633 MUXi_1/n26
*634 MUXi_1/n27
*635 MUXi_1/n28
*636 MUXi_1/n29
*637 MUXi_1/n30
*638 MUXi_1/n31
*639 MUXi_1/n32
*640 MUXi_1/n33
*641 MUXi_1/n34
*642 MUXi_1/n35
*643 MUXi_1/n36
*644 MUXi_1/n37
*645 MUXi_1/n38
*646 MUXi_1/n39
*647 MUXi_1/n40
*648 MUXi_1/n41
*649 MUXi_1/n64
*650 ADDERi_1/N2
*651 ADDERi_1/N3
*652 ADDERi_1/N4
*653 ADDERi_1/N5
*654 ADDERi_1/N6
*655 ADDERi_1/N7
*656 ADDERi_1/N8
*657 ADDERi_1/N9
*658 ADDERi_1/N10
*659 ADDERi_1/N11
*660 ADDERi_1/N12
*661 ADDERi_1/N13
*662 ADDERi_1/N14
*663 ADDERi_1/N15
*664 ADDERi_1/N16
*665 ADDERi_1/N17
*666 ADDERi_1/N18
*667 ADDERi_1/N19
*668 ADDERi_1/N20
*669 ADDERi_1/N21
*670 ADDERi_1/N23
*671 ADDERi_1/N24
*672 ADDERi_1/N25
*673 ADDERi_1/N26
*674 ADDERi_1/N27
*675 ADDERi_1/N28
*676 ADDERi_1/N29
*677 ADDERi_1/N30
*678 ADDERi_1/N31
*679 ADDERi_1/N32
*680 ADDERi_1/N33
*681 ADDERi_1/N34
*682 ADDERi_1/N35
*683 ADDERi_1/N36
*684 ADDERi_1/N37
*685 ADDERi_1/N38
*686 ADDERi_1/N39
*687 ADDERi_1/N40
*688 ADDERi_1/N41
*689 ADDERi_1/N42
*690 ADDERi_1/n26
*691 ADDERi_1/n27
*692 ADDERi_1/n28
*693 ADDERi_1/n29
*694 ADDERi_1/n30
*695 ADDERi_1/n31
*696 ADDERi_1/n32
*697 ADDERi_1/n33
*698 ADDERi_1/n34
*699 ADDERi_1/n35
*700 ADDERi_1/n36
*701 ADDERi_1/n37
*702 ADDERi_1/n38
*703 ADDERi_1/n39
*704 ADDERi_1/n40
*705 ADDERi_1/n41
*706 ADDERi_1/n42
*707 ADDERi_1/n43
*708 ADDERi_1/n44
*709 ADDERi_1/n45
*710 ADDERi_1/n23
*711 ADDERi_1/sub_20/n78
*712 ADDERi_1/sub_20/n79
*713 ADDERi_1/sub_20/n80
*714 ADDERi_1/sub_20/n81
*715 ADDERi_1/sub_20/n82
*716 ADDERi_1/sub_20/n83
*717 ADDERi_1/sub_20/n84
*718 ADDERi_1/sub_20/n85
*719 ADDERi_1/sub_20/n86
*720 ADDERi_1/sub_20/n87
*721 ADDERi_1/sub_20/n88
*722 ADDERi_1/sub_20/n89
*723 ADDERi_1/sub_20/n90
*724 ADDERi_1/sub_20/n91
*725 ADDERi_1/sub_20/n54
*726 ADDERi_1/sub_20/n63
*727 ADDERi_1/sub_20/n64
*728 ADDERi_1/sub_20/n65
*729 ADDERi_1/sub_20/n66
*730 ADDERi_1/sub_20/n67
*731 ADDERi_1/sub_20/n68
*732 ADDERi_1/sub_20/n69
*733 ADDERi_1/sub_20/n70
*734 ADDERi_1/sub_20/n71
*735 ADDERi_1/sub_20/n72
*736 ADDERi_1/sub_20/n73
*737 ADDERi_1/sub_20/n74
*738 ADDERi_1/sub_20/n77
*739 ADDERi_1/sub_20/n92
*740 ADDERi_1/sub_20/n93
*741 ADDERi_1/sub_20/n94
*742 ADDERi_1/sub_20/n95
*743 ADDERi_1/sub_20/n96
*744 ADDERi_1/sub_20/n97
*745 ADDERi_1/sub_20/n98
*746 ADDERi_1/sub_20/n99
*747 ADDERi_1/sub_20/n100
*748 ADDERi_1/sub_20/n101
*749 ADDERi_1/sub_20/n102
*750 ADDERi_1/sub_20/n103
*751 ADDERi_1/sub_20/n104
*752 ADDERi_1/sub_20/n105
*753 ADDERi_1/sub_20/n106
*754 ADDERi_1/sub_20/n107
*755 ADDERi_1/sub_20/n108
*756 ADDERi_1/sub_20/n110
*757 ADDERi_1/sub_20/n111
*758 ADDERi_1/sub_20/n112
*759 ADDERi_1/sub_20/n113
*760 ADDERi_1/sub_20/n114
*761 ADDERi_1/sub_20/n115
*762 ADDERi_1/sub_20/n116
*763 ADDERi_1/sub_20/n117
*764 ADDERi_1/sub_20/n118
*765 ADDERi_1/sub_20/n119
*766 ADDERi_1/sub_20/n120
*767 ADDERi_1/sub_20/n121
*768 ADDERi_1/sub_20/n122
*769 ADDERi_1/sub_20/n123
*770 ADDERi_1/sub_20/n124
*771 ADDERi_1/sub_20/n125
*772 ADDERi_1/sub_20/n126
*773 ADDERi_1/sub_20/n127
*774 ADDERi_1/sub_20/n128
*775 ADDERi_1/sub_20/n129
*776 ADDERi_1/sub_20/n130
*777 ADDERi_1/sub_20/n131
*778 ADDERi_1/sub_20/n132
*779 ADDERi_1/sub_20/n133
*780 ADDERi_1/sub_20/n134
*781 ADDERi_1/sub_20/n135
*782 ADDERi_1/sub_20/n136
*783 ADDERi_1/sub_20/n137
*784 ADDERi_1/sub_20/n138
*785 ADDERi_1/sub_20/n139
*786 ADDERi_1/sub_20/n140
*787 ADDERi_1/sub_20/n141
*788 ADDERi_1/sub_20/n142
*789 ADDERi_1/sub_20/n143
*790 ADDERi_1/sub_20/n144
*791 ADDERi_1/sub_20/n145
*792 ADDERi_1/sub_20/n146
*793 ADDERi_1/sub_20/n147
*794 ADDERi_1/sub_20/carry[19]
*795 ADDERi_1/sub_20/carry[18]
*796 ADDERi_1/sub_20/carry[17]
*797 ADDERi_1/sub_20/carry[16]
*798 ADDERi_1/sub_20/carry[15]
*799 ADDERi_1/sub_20/carry[14]
*800 ADDERi_1/sub_20/carry[12]
*801 ADDERi_1/sub_20/carry[11]
*802 ADDERi_1/sub_20/carry[9]
*803 ADDERi_1/sub_20/carry[7]
*804 ADDERi_1/sub_20/carry[6]
*805 ADDERi_1/sub_20/carry[3]
*806 ADDERi_1/sub_20/carry[2]
*807 ADDERi_1/sub_20/carry[1]
*808 ADDERi_1/add_20/carry\[6\]
*809 ADDERi_1/add_20/carry\[5\]
*810 ADDERi_1/add_20/carry\[3\]
*811 ADDERi_1/add_20/carry\[2\]
*812 ADDERi_1/add_20/n3
*813 ADDERi_1/add_20/n13
*814 ADDERi_1/add_20/n14
*815 ADDERi_1/add_20/n15
*816 ADDERi_1/add_20/n17
*817 ADDERi_1/add_20/n18
*818 ADDERi_1/add_20/n10
*819 ADDERi_1/add_20/n11
*820 ADDERi_1/add_20/n12
*821 ADDERi_1/add_20/n19
*822 ADDERi_1/add_20/n20
*823 ADDERi_1/add_20/n21
*824 ADDERi_1/add_20/n23
*825 ADDERi_1/add_20/n24
*826 ADDERi_1/add_20/n25
*827 ADDERi_1/add_20/n26
*828 ADDERi_1/add_20/n27
*829 ADDERi_1/add_20/n28
*830 ADDERi_1/add_20/n29
*831 ADDERi_1/add_20/n30
*832 ADDERi_1/add_20/n31
*833 ADDERi_1/add_20/carry[19]
*834 ADDERi_1/add_20/carry[18]
*835 ADDERi_1/add_20/carry[17]
*836 ADDERi_1/add_20/carry[16]
*837 ADDERi_1/add_20/carry[15]
*838 ADDERi_1/add_20/carry[14]
*839 ADDERi_1/add_20/carry[13]
*840 ADDERi_1/add_20/carry[11]
*841 ADDERi_1/add_20/carry[10]
*842 ADDERi_1/add_20/carry[9]
*843 ADDERi_1/add_20/carry[8]
*844 ENCi_2/n2
*845 MUXi_2/n23
*846 MUXi_2/n24
*847 MUXi_2/n25
*848 MUXi_2/n26
*849 MUXi_2/n27
*850 MUXi_2/n28
*851 MUXi_2/n29
*852 MUXi_2/n30
*853 MUXi_2/n31
*854 MUXi_2/n32
*855 MUXi_2/n33
*856 MUXi_2/n34
*857 MUXi_2/n35
*858 MUXi_2/n36
*859 MUXi_2/n37
*860 MUXi_2/n38
*861 MUXi_2/n39
*862 MUXi_2/n40
*863 MUXi_2/n41
*864 MUXi_2/n42
*865 MUXi_2/n43
*866 MUXi_2/n44
*867 MUXi_2/n45
*868 MUXi_2/n106
*869 ADDERi_2/N2
*870 ADDERi_2/N3
*871 ADDERi_2/N4
*872 ADDERi_2/N5
*873 ADDERi_2/N6
*874 ADDERi_2/N7
*875 ADDERi_2/N8
*876 ADDERi_2/N9
*877 ADDERi_2/N10
*878 ADDERi_2/N11
*879 ADDERi_2/N12
*880 ADDERi_2/N13
*881 ADDERi_2/N14
*882 ADDERi_2/N15
*883 ADDERi_2/N16
*884 ADDERi_2/N17
*885 ADDERi_2/N18
*886 ADDERi_2/N19
*887 ADDERi_2/N20
*888 ADDERi_2/N21
*889 ADDERi_2/N22
*890 ADDERi_2/N23
*891 ADDERi_2/N25
*892 ADDERi_2/N26
*893 ADDERi_2/N27
*894 ADDERi_2/N28
*895 ADDERi_2/N29
*896 ADDERi_2/N30
*897 ADDERi_2/N31
*898 ADDERi_2/N32
*899 ADDERi_2/N33
*900 ADDERi_2/N34
*901 ADDERi_2/N35
*902 ADDERi_2/N36
*903 ADDERi_2/N37
*904 ADDERi_2/N38
*905 ADDERi_2/N39
*906 ADDERi_2/N40
*907 ADDERi_2/N41
*908 ADDERi_2/N42
*909 ADDERi_2/N43
*910 ADDERi_2/N44
*911 ADDERi_2/N45
*912 ADDERi_2/N46
*913 ADDERi_2/n28
*914 ADDERi_2/n29
*915 ADDERi_2/n30
*916 ADDERi_2/n31
*917 ADDERi_2/n32
*918 ADDERi_2/n33
*919 ADDERi_2/n34
*920 ADDERi_2/n35
*921 ADDERi_2/n36
*922 ADDERi_2/n37
*923 ADDERi_2/n38
*924 ADDERi_2/n39
*925 ADDERi_2/n40
*926 ADDERi_2/n41
*927 ADDERi_2/n42
*928 ADDERi_2/n43
*929 ADDERi_2/n44
*930 ADDERi_2/n45
*931 ADDERi_2/n46
*932 ADDERi_2/n47
*933 ADDERi_2/n48
*934 ADDERi_2/n49
*935 ADDERi_2/n24
*936 ADDERi_2/sub_20/carry\[9\]
*937 ADDERi_2/sub_20/carry\[8\]
*938 ADDERi_2/sub_20/carry\[7\]
*939 ADDERi_2/sub_20/carry\[13\]
*940 ADDERi_2/sub_20/carry\[12\]
*941 ADDERi_2/sub_20/carry\[11\]
*942 ADDERi_2/sub_20/carry\[10\]
*943 ADDERi_2/sub_20/carry\[6\]
*944 ADDERi_2/sub_20/carry\[5\]
*945 ADDERi_2/sub_20/carry\[4\]
*946 ADDERi_2/sub_20/carry\[3\]
*947 ADDERi_2/sub_20/carry\[2\]
*948 ADDERi_2/sub_20/carry\[1\]
*949 ADDERi_2/sub_20/n31
*950 ADDERi_2/sub_20/n32
*951 ADDERi_2/sub_20/n33
*952 ADDERi_2/sub_20/n10
*953 ADDERi_2/sub_20/n11
*954 ADDERi_2/sub_20/n12
*955 ADDERi_2/sub_20/n13
*956 ADDERi_2/sub_20/n14
*957 ADDERi_2/sub_20/n15
*958 ADDERi_2/sub_20/n16
*959 ADDERi_2/sub_20/n17
*960 ADDERi_2/sub_20/n18
*961 ADDERi_2/sub_20/n19
*962 ADDERi_2/sub_20/n20
*963 ADDERi_2/sub_20/n21
*964 ADDERi_2/sub_20/n22
*965 ADDERi_2/sub_20/n23
*966 ADDERi_2/sub_20/n24
*967 ADDERi_2/sub_20/n25
*968 ADDERi_2/sub_20/n26
*969 ADDERi_2/sub_20/n27
*970 ADDERi_2/sub_20/n28
*971 ADDERi_2/sub_20/n29
*972 ADDERi_2/sub_20/n30
*973 ADDERi_2/sub_20/n34
*974 ADDERi_2/sub_20/n35
*975 ADDERi_2/sub_20/n36
*976 ADDERi_2/sub_20/n37
*977 ADDERi_2/sub_20/n38
*978 ADDERi_2/sub_20/n39
*979 ADDERi_2/sub_20/n40
*980 ADDERi_2/sub_20/n41
*981 ADDERi_2/sub_20/n42
*982 ADDERi_2/sub_20/n43
*983 ADDERi_2/sub_20/n44
*984 ADDERi_2/sub_20/n45
*985 ADDERi_2/sub_20/n46
*986 ADDERi_2/sub_20/n47
*987 ADDERi_2/sub_20/n48
*988 ADDERi_2/sub_20/n49
*989 ADDERi_2/sub_20/n50
*990 ADDERi_2/sub_20/n51
*991 ADDERi_2/sub_20/n52
*992 ADDERi_2/sub_20/n53
*993 ADDERi_2/sub_20/n54
*994 ADDERi_2/sub_20/n55
*995 ADDERi_2/sub_20/n56
*996 ADDERi_2/sub_20/carry[21]
*997 ADDERi_2/sub_20/carry[20]
*998 ADDERi_2/sub_20/carry[19]
*999 ADDERi_2/sub_20/carry[18]
*1000 ADDERi_2/sub_20/carry[17]
*1001 ADDERi_2/sub_20/carry[16]
*1002 ADDERi_2/sub_20/carry[15]
*1003 ADDERi_2/add_20/n14
*1004 ADDERi_2/add_20/n17
*1005 ADDERi_2/add_20/n18
*1006 ADDERi_2/add_20/n19
*1007 ADDERi_2/add_20/n20
*1008 ADDERi_2/add_20/n15
*1009 ADDERi_2/add_20/n21
*1010 ADDERi_2/add_20/n22
*1011 ADDERi_2/add_20/n23
*1012 ADDERi_2/add_20/n24
*1013 ADDERi_2/add_20/n27
*1014 ADDERi_2/add_20/n28
*1015 ADDERi_2/add_20/n29
*1016 ADDERi_2/add_20/n30
*1017 ADDERi_2/add_20/n31
*1018 ADDERi_2/add_20/n32
*1019 ADDERi_2/add_20/n33
*1020 ADDERi_2/add_20/n34
*1021 ADDERi_2/add_20/n35
*1022 ADDERi_2/add_20/n36
*1023 ADDERi_2/add_20/n37
*1024 ADDERi_2/add_20/n38
*1025 ADDERi_2/add_20/n39
*1026 ADDERi_2/add_20/n40
*1027 ADDERi_2/add_20/n41
*1028 ADDERi_2/add_20/carry[21]
*1029 ADDERi_2/add_20/carry[20]
*1030 ADDERi_2/add_20/carry[19]
*1031 ADDERi_2/add_20/carry[18]
*1032 ADDERi_2/add_20/carry[16]
*1033 ADDERi_2/add_20/carry[15]
*1034 ADDERi_2/add_20/carry[14]
*1035 ADDERi_2/add_20/carry[12]
*1036 ADDERi_2/add_20/carry[11]
*1037 ADDERi_2/add_20/carry[10]
*1038 ADDERi_2/add_20/carry[9]
*1039 ADDERi_2/add_20/carry[8]
*1040 ADDERi_2/add_20/carry[7]
*1041 ADDERi_2/add_20/carry[6]
*1042 ADDERi_2/add_20/carry[5]
*1043 ADDERi_2/add_20/carry[4]
*1044 ADDERi_2/add_20/carry[3]
*1045 ADDERi_2/add_20/carry[2]
*1046 ENCi_3/n2
*1047 MUXi_3/n25
*1048 MUXi_3/n26
*1049 MUXi_3/n27
*1050 MUXi_3/n28
*1051 MUXi_3/n29
*1052 MUXi_3/n30
*1053 MUXi_3/n31
*1054 MUXi_3/n32
*1055 MUXi_3/n33
*1056 MUXi_3/n34
*1057 MUXi_3/n35
*1058 MUXi_3/n36
*1059 MUXi_3/n37
*1060 MUXi_3/n38
*1061 MUXi_3/n39
*1062 MUXi_3/n40
*1063 MUXi_3/n41
*1064 MUXi_3/n42
*1065 MUXi_3/n43
*1066 MUXi_3/n44
*1067 MUXi_3/n45
*1068 MUXi_3/n46
*1069 MUXi_3/n47
*1070 MUXi_3/n48
*1071 MUXi_3/n49
*1072 MUXi_3/n93
*1073 ADDERi_3/N2
*1074 ADDERi_3/N3
*1075 ADDERi_3/N4
*1076 ADDERi_3/N5
*1077 ADDERi_3/N6
*1078 ADDERi_3/N7
*1079 ADDERi_3/N8
*1080 ADDERi_3/N9
*1081 ADDERi_3/N10
*1082 ADDERi_3/N11
*1083 ADDERi_3/N12
*1084 ADDERi_3/N13
*1085 ADDERi_3/N14
*1086 ADDERi_3/N15
*1087 ADDERi_3/N16
*1088 ADDERi_3/N17
*1089 ADDERi_3/N18
*1090 ADDERi_3/N19
*1091 ADDERi_3/N20
*1092 ADDERi_3/N21
*1093 ADDERi_3/N22
*1094 ADDERi_3/N23
*1095 ADDERi_3/N24
*1096 ADDERi_3/N25
*1097 ADDERi_3/N27
*1098 ADDERi_3/N28
*1099 ADDERi_3/N29
*1100 ADDERi_3/N30
*1101 ADDERi_3/N31
*1102 ADDERi_3/N32
*1103 ADDERi_3/N33
*1104 ADDERi_3/N34
*1105 ADDERi_3/N35
*1106 ADDERi_3/N36
*1107 ADDERi_3/N37
*1108 ADDERi_3/N38
*1109 ADDERi_3/N39
*1110 ADDERi_3/N40
*1111 ADDERi_3/N41
*1112 ADDERi_3/N42
*1113 ADDERi_3/N43
*1114 ADDERi_3/N44
*1115 ADDERi_3/N45
*1116 ADDERi_3/N46
*1117 ADDERi_3/N47
*1118 ADDERi_3/N48
*1119 ADDERi_3/N49
*1120 ADDERi_3/N50
*1121 ADDERi_3/n30
*1122 ADDERi_3/n31
*1123 ADDERi_3/n32
*1124 ADDERi_3/n33
*1125 ADDERi_3/n34
*1126 ADDERi_3/n35
*1127 ADDERi_3/n36
*1128 ADDERi_3/n37
*1129 ADDERi_3/n38
*1130 ADDERi_3/n39
*1131 ADDERi_3/n40
*1132 ADDERi_3/n41
*1133 ADDERi_3/n42
*1134 ADDERi_3/n43
*1135 ADDERi_3/n44
*1136 ADDERi_3/n45
*1137 ADDERi_3/n46
*1138 ADDERi_3/n47
*1139 ADDERi_3/n48
*1140 ADDERi_3/n49
*1141 ADDERi_3/n50
*1142 ADDERi_3/n51
*1143 ADDERi_3/n52
*1144 ADDERi_3/n53
*1145 ADDERi_3/n23
*1146 ADDERi_3/sub_20/carry\[9\]
*1147 ADDERi_3/sub_20/carry\[8\]
*1148 ADDERi_3/sub_20/carry\[7\]
*1149 ADDERi_3/sub_20/carry\[6\]
*1150 ADDERi_3/sub_20/carry\[5\]
*1151 ADDERi_3/sub_20/carry\[4\]
*1152 ADDERi_3/sub_20/carry\[3\]
*1153 ADDERi_3/sub_20/carry\[2\]
*1154 ADDERi_3/sub_20/carry\[1\]
*1155 ADDERi_3/sub_20/carry\[14\]
*1156 ADDERi_3/sub_20/carry\[13\]
*1157 ADDERi_3/sub_20/carry\[12\]
*1158 ADDERi_3/sub_20/carry\[11\]
*1159 ADDERi_3/sub_20/carry\[10\]
*1160 ADDERi_3/sub_20/n51
*1161 ADDERi_3/sub_20/n27
*1162 ADDERi_3/sub_20/n28
*1163 ADDERi_3/sub_20/n29
*1164 ADDERi_3/sub_20/n30
*1165 ADDERi_3/sub_20/n31
*1166 ADDERi_3/sub_20/n32
*1167 ADDERi_3/sub_20/n33
*1168 ADDERi_3/sub_20/n34
*1169 ADDERi_3/sub_20/n35
*1170 ADDERi_3/sub_20/n36
*1171 ADDERi_3/sub_20/n37
*1172 ADDERi_3/sub_20/n38
*1173 ADDERi_3/sub_20/n39
*1174 ADDERi_3/sub_20/n40
*1175 ADDERi_3/sub_20/n41
*1176 ADDERi_3/sub_20/n42
*1177 ADDERi_3/sub_20/n43
*1178 ADDERi_3/sub_20/n44
*1179 ADDERi_3/sub_20/n45
*1180 ADDERi_3/sub_20/n46
*1181 ADDERi_3/sub_20/n47
*1182 ADDERi_3/sub_20/n48
*1183 ADDERi_3/sub_20/n49
*1184 ADDERi_3/sub_20/n50
*1185 ADDERi_3/sub_20/n52
*1186 ADDERi_3/sub_20/n53
*1187 ADDERi_3/sub_20/n54
*1188 ADDERi_3/sub_20/n55
*1189 ADDERi_3/sub_20/n56
*1190 ADDERi_3/sub_20/n57
*1191 ADDERi_3/sub_20/n58
*1192 ADDERi_3/sub_20/n59
*1193 ADDERi_3/sub_20/n60
*1194 ADDERi_3/sub_20/n61
*1195 ADDERi_3/sub_20/n62
*1196 ADDERi_3/sub_20/n63
*1197 ADDERi_3/sub_20/n64
*1198 ADDERi_3/sub_20/n65
*1199 ADDERi_3/sub_20/n66
*1200 ADDERi_3/sub_20/n67
*1201 ADDERi_3/sub_20/carry[23]
*1202 ADDERi_3/sub_20/carry[22]
*1203 ADDERi_3/sub_20/carry[21]
*1204 ADDERi_3/sub_20/carry[20]
*1205 ADDERi_3/sub_20/carry[19]
*1206 ADDERi_3/sub_20/carry[18]
*1207 ADDERi_3/sub_20/carry[17]
*1208 ADDERi_3/sub_20/carry[16]
*1209 ADDERi_3/sub_20/carry[15]
*1210 ADDERi_3/add_20/n2
*1211 ADDERi_3/add_20/n4
*1212 ADDERi_3/add_20/n5
*1213 ADDERi_3/add_20/n6
*1214 ADDERi_3/add_20/n7
*1215 ADDERi_3/add_20/carry[23]
*1216 ADDERi_3/add_20/carry[22]
*1217 ADDERi_3/add_20/carry[21]
*1218 ADDERi_3/add_20/carry[20]
*1219 ADDERi_3/add_20/carry[19]
*1220 ADDERi_3/add_20/carry[18]
*1221 ADDERi_3/add_20/carry[17]
*1222 ADDERi_3/add_20/carry[16]
*1223 ADDERi_3/add_20/carry[15]
*1224 ADDERi_3/add_20/carry[14]
*1225 ADDERi_3/add_20/carry[13]
*1226 ADDERi_3/add_20/carry[12]
*1227 ADDERi_3/add_20/carry[11]
*1228 ADDERi_3/add_20/carry[10]
*1229 ADDERi_3/add_20/carry[9]
*1230 ADDERi_3/add_20/carry[8]
*1231 ADDERi_3/add_20/carry[7]
*1232 ADDERi_3/add_20/carry[6]
*1233 ADDERi_3/add_20/carry[5]
*1234 ADDERi_3/add_20/carry[4]
*1235 ADDERi_3/add_20/carry[3]
*1236 ADDERi_3/add_20/carry[2]
*1237 ENCi_4/n2
*1238 MUXi_4/n27
*1239 MUXi_4/n28
*1240 MUXi_4/n29
*1241 MUXi_4/n30
*1242 MUXi_4/n31
*1243 MUXi_4/n32
*1244 MUXi_4/n33
*1245 MUXi_4/n34
*1246 MUXi_4/n35
*1247 MUXi_4/n36
*1248 MUXi_4/n37
*1249 MUXi_4/n38
*1250 MUXi_4/n39
*1251 MUXi_4/n40
*1252 MUXi_4/n41
*1253 MUXi_4/n42
*1254 MUXi_4/n43
*1255 MUXi_4/n44
*1256 MUXi_4/n45
*1257 MUXi_4/n46
*1258 MUXi_4/n47
*1259 MUXi_4/n48
*1260 MUXi_4/n49
*1261 MUXi_4/n50
*1262 MUXi_4/n51
*1263 MUXi_4/n52
*1264 MUXi_4/n53
*1265 MUXi_4/n93
*1266 ADDERi_4/N2
*1267 ADDERi_4/N3
*1268 ADDERi_4/N4
*1269 ADDERi_4/N5
*1270 ADDERi_4/N6
*1271 ADDERi_4/N7
*1272 ADDERi_4/N8
*1273 ADDERi_4/N9
*1274 ADDERi_4/N10
*1275 ADDERi_4/N11
*1276 ADDERi_4/N12
*1277 ADDERi_4/N13
*1278 ADDERi_4/N14
*1279 ADDERi_4/N15
*1280 ADDERi_4/N16
*1281 ADDERi_4/N17
*1282 ADDERi_4/N18
*1283 ADDERi_4/N19
*1284 ADDERi_4/N20
*1285 ADDERi_4/N21
*1286 ADDERi_4/N22
*1287 ADDERi_4/N23
*1288 ADDERi_4/N24
*1289 ADDERi_4/N25
*1290 ADDERi_4/N26
*1291 ADDERi_4/N27
*1292 ADDERi_4/N29
*1293 ADDERi_4/N30
*1294 ADDERi_4/N31
*1295 ADDERi_4/N32
*1296 ADDERi_4/N33
*1297 ADDERi_4/N34
*1298 ADDERi_4/N35
*1299 ADDERi_4/N36
*1300 ADDERi_4/N37
*1301 ADDERi_4/N38
*1302 ADDERi_4/N39
*1303 ADDERi_4/N40
*1304 ADDERi_4/N41
*1305 ADDERi_4/N42
*1306 ADDERi_4/N43
*1307 ADDERi_4/N44
*1308 ADDERi_4/N45
*1309 ADDERi_4/N46
*1310 ADDERi_4/N47
*1311 ADDERi_4/N48
*1312 ADDERi_4/N49
*1313 ADDERi_4/N50
*1314 ADDERi_4/N51
*1315 ADDERi_4/N52
*1316 ADDERi_4/N53
*1317 ADDERi_4/N54
*1318 ADDERi_4/n32
*1319 ADDERi_4/n33
*1320 ADDERi_4/n34
*1321 ADDERi_4/n35
*1322 ADDERi_4/n36
*1323 ADDERi_4/n37
*1324 ADDERi_4/n38
*1325 ADDERi_4/n39
*1326 ADDERi_4/n40
*1327 ADDERi_4/n41
*1328 ADDERi_4/n42
*1329 ADDERi_4/n43
*1330 ADDERi_4/n44
*1331 ADDERi_4/n45
*1332 ADDERi_4/n46
*1333 ADDERi_4/n47
*1334 ADDERi_4/n48
*1335 ADDERi_4/n49
*1336 ADDERi_4/n50
*1337 ADDERi_4/n51
*1338 ADDERi_4/n52
*1339 ADDERi_4/n53
*1340 ADDERi_4/n54
*1341 ADDERi_4/n55
*1342 ADDERi_4/n56
*1343 ADDERi_4/n57
*1344 ADDERi_4/sub_20/carry\[24\]
*1345 ADDERi_4/sub_20/carry\[23\]
*1346 ADDERi_4/sub_20/carry\[22\]
*1347 ADDERi_4/sub_20/carry\[21\]
*1348 ADDERi_4/sub_20/carry\[20\]
*1349 ADDERi_4/sub_20/carry\[19\]
*1350 ADDERi_4/sub_20/carry\[18\]
*1351 ADDERi_4/sub_20/carry\[9\]
*1352 ADDERi_4/sub_20/carry\[8\]
*1353 ADDERi_4/sub_20/carry\[7\]
*1354 ADDERi_4/sub_20/carry\[6\]
*1355 ADDERi_4/sub_20/carry\[5\]
*1356 ADDERi_4/sub_20/carry\[4\]
*1357 ADDERi_4/sub_20/carry\[3\]
*1358 ADDERi_4/sub_20/carry\[2\]
*1359 ADDERi_4/sub_20/carry\[1\]
*1360 ADDERi_4/sub_20/carry\[17\]
*1361 ADDERi_4/sub_20/carry\[16\]
*1362 ADDERi_4/sub_20/carry\[15\]